
     RDKit          3D

 29 34  0  0  0  0  0  0  0  0999 V2000
   -2.5592    5.1796   -0.0829 C   0  0  0  0  0  0  0  0  0  0  0  0
   -1.8529    3.9169   -0.1355 N   0  0  0  0  0  0  0  0  0  0  0  0
   -0.4106    3.9263   -0.1636 C   0  0  0  0  0  0  0  0  0  0  0  0
    0.1619    2.6177    0.2387 C   0  0  0  0  0  0  0  0  0  0  0  0
    1.3366    2.6211    0.6992 O   0  0  0  0  0  0  0  0  0  0  0  0
   -0.5387    1.3944    0.1298 N   0  0  0  0  0  0  0  0  0  0  0  0
   -1.9062    1.3913   -0.3390 C   0  0  0  0  0  0  0  0  0  0  0  0
   -2.5611    2.7074   -0.1586 C   0  0  0  0  0  0  0  0  0  0  0  0
   -3.8313    2.7016   -0.0207 O   0  0  0  0  0  0  0  0  0  0  0  0
   -2.6362    0.2904    0.4418 C   0  0  0  0  0  0  0  0  0  0  0  0
   -2.0110   -1.0042   -0.0070 C   0  0  0  0  0  0  0  0  0  0  0  0
   -0.6300   -1.0473    0.0191 C   0  0  0  0  0  0  0  0  0  0  0  0
    0.0793    0.1496    0.4759 C   0  0  0  0  0  0  0  0  0  0  0  0
    1.5291    0.1161    0.1847 C   0  0  0  0  0  0  0  0  0  0  0  0
    2.3565   -0.4052    1.1592 C   0  0  0  0  0  0  0  0  0  0  0  0
    3.7244   -0.4848    0.9931 C   0  0  0  0  0  0  0  0  0  0  0  0
    4.3063   -0.0374   -0.1713 C   0  0  0  0  0  0  0  0  0  0  0  0
    3.4710    0.4849   -1.1463 C   0  0  0  0  0  0  0  0  0  0  0  0
    2.1028    0.5613   -0.9726 C   0  0  0  0  0  0  0  0  0  0  0  0
    5.6615   -0.2434   -0.0471 O   0  0  0  0  0  0  0  0  0  0  0  0
    5.9277   -0.7906    1.2425 C   0  0  0  0  0  0  0  0  0  0  0  0
    4.6855   -0.9725    1.8573 O   0  0  0  0  0  0  0  0  0  0  0  0
   -0.2826   -2.2860   -0.4198 N   0  0  0  0  0  0  0  0  0  0  0  0
   -1.3755   -3.0014   -0.7122 C   0  0  0  0  0  0  0  0  0  0  0  0
   -1.6188   -4.2859   -1.1854 C   0  0  0  0  0  0  0  0  0  0  0  0
   -2.9018   -4.7286   -1.3847 C   0  0  0  0  0  0  0  0  0  0  0  0
   -3.9885   -3.9139   -1.1220 C   0  0  0  0  0  0  0  0  0  0  0  0
   -3.7706   -2.6431   -0.6545 C   0  0  0  0  0  0  0  0  0  0  0  0
   -2.4676   -2.2142   -0.4597 C   0  0  0  0  0  0  0  0  0  0  0  0
  1  2  1  0
  2  3  1  0
  3  4  1  0
  4  5  2  0
  4  6  1  0
  6  7  1  0
  7  8  1  0
  8  9  2  0
  7 10  1  0
 10 11  1  0
 11 12  2  0
 12 13  1  0
 13 14  1  0
 14 15  2  0
 15 16  1  0
 16 17  2  0
 17 18  1  0
 18 19  2  0
 17 20  1  0
 20 21  1  0
 21 22  1  0
 12 23  1  0
 23 24  1  0
 24 25  2  0
 25 26  1  0
 26 27  2  0
 27 28  1  0
 28 29  2  0
  8  2  1  0
 13  6  1  0
 29 11  1  0
 19 14  1  0
 22 16  1  0
 29 24  1  0
M  END
>  <CID>  (1) 
-1

>  <Energy>  (1) 


$$$$

     RDKit          3D

 29 34  0  0  0  0  0  0  0  0999 V2000
    5.0829   -0.0649   -0.2893 C   0  0  0  0  0  0  0  0  0  0  0  0
    3.6958    0.3538   -0.2922 N   0  0  0  0  0  0  0  0  0  0  0  0
    3.2971    1.4327    0.6037 C   0  0  0  0  0  0  0  0  0  0  0  0
    1.8704    1.2487    1.1217 C   0  0  0  0  0  0  0  0  0  0  0  0
    1.5139    1.7250    2.1981 O   0  0  0  0  0  0  0  0  0  0  0  0
    0.9989    0.6373    0.2190 N   0  0  0  0  0  0  0  0  0  0  0  0
    1.4182    0.5528   -1.2134 C   0  0  0  0  0  0  0  0  0  0  0  0
    2.8443   -0.0276   -1.3240 C   0  0  0  0  0  0  0  0  0  0  0  0
    3.2310   -0.6644   -2.3018 O   0  0  0  0  0  0  0  0  0  0  0  0
    0.4897   -0.2470   -2.1530 C   0  0  0  0  0  0  0  0  0  0  0  0
   -0.9245    0.0558   -1.8404 C   0  0  0  0  0  0  0  0  0  0  0  0
   -1.2946    0.3736   -0.5539 C   0  0  0  0  0  0  0  0  0  0  0  0
   -0.4034    0.4717    0.6414 C   0  0  0  0  0  0  0  0  0  0  0  0
   -0.5520   -0.7220    1.5813 C   0  0  0  0  0  0  0  0  0  0  0  0
   -0.4542   -2.0463    1.1137 C   0  0  0  0  0  0  0  0  0  0  0  0
   -0.5868   -3.0753    2.0228 C   0  0  0  0  0  0  0  0  0  0  0  0
   -0.8025   -2.8406    3.3591 C   0  0  0  0  0  0  0  0  0  0  0  0
   -0.8938   -1.5634    3.8637 C   0  0  0  0  0  0  0  0  0  0  0  0
   -0.7640   -0.4988    2.9655 C   0  0  0  0  0  0  0  0  0  0  0  0
   -0.9020   -3.9896    4.0793 O   0  0  0  0  0  0  0  0  0  0  0  0
   -0.7218   -4.9754    3.0414 C   0  0  0  0  0  0  0  0  0  0  0  0
   -0.5227   -4.4026    1.7329 O   0  0  0  0  0  0  0  0  0  0  0  0
   -2.6477    0.5807   -0.5433 N   0  0  0  0  0  0  0  0  0  0  0  0
   -3.1556    0.4121   -1.8144 C   0  0  0  0  0  0  0  0  0  0  0  0
   -4.4712    0.5237   -2.2797 C   0  0  0  0  0  0  0  0  0  0  0  0
   -4.7003    0.2866   -3.6385 C   0  0  0  0  0  0  0  0  0  0  0  0
   -3.6549   -0.0507   -4.4954 C   0  0  0  0  0  0  0  0  0  0  0  0
   -2.3446   -0.1600   -4.0154 C   0  0  0  0  0  0  0  0  0  0  0  0
   -2.0876    0.0769   -2.6514 C   0  0  0  0  0  0  0  0  0  0  0  0
  1  2  1  0
  2  3  1  0
  3  4  1  0
  4  5  2  0
  4  6  1  0
  6  7  1  0
  7  8  1  0
  8  9  2  0
  7 10  1  0
 10 11  1  0
 11 12  2  0
 12 13  1  0
 13 14  1  0
 14 15  2  0
 15 16  1  0
 16 17  2  0
 17 18  1  0
 18 19  2  0
 17 20  1  0
 20 21  1  0
 21 22  1  0
 12 23  1  0
 23 24  1  0
 24 25  2  0
 25 26  1  0
 26 27  2  0
 27 28  1  0
 28 29  2  0
  8  2  1  0
 13  6  1  0
 29 11  1  0
 19 14  1  0
 22 16  1  0
 29 24  1  0
M  END
>  <CID>  (2) 
48

>  <Energy>  (2) 
92.02248493202235

$$$$

     RDKit          3D

 29 34  0  0  0  0  0  0  0  0999 V2000
    4.6355    1.5283    0.5589 C   0  0  0  0  0  0  0  0  0  0  0  0
    3.5799    0.7660   -0.0765 N   0  0  0  0  0  0  0  0  0  0  0  0
    3.8688   -0.6006   -0.4943 C   0  0  0  0  0  0  0  0  0  0  0  0
    2.6464   -1.5096   -0.3636 C   0  0  0  0  0  0  0  0  0  0  0  0
    2.7654   -2.7218   -0.1941 O   0  0  0  0  0  0  0  0  0  0  0  0
    1.4243   -0.8767   -0.5963 N   0  0  0  0  0  0  0  0  0  0  0  0
    1.4426    0.4599   -1.2656 C   0  0  0  0  0  0  0  0  0  0  0  0
    2.4413    1.4021   -0.5602 C   0  0  0  0  0  0  0  0  0  0  0  0
    2.3050    2.6237   -0.5399 O   0  0  0  0  0  0  0  0  0  0  0  0
    0.0847    1.1854   -1.3841 C   0  0  0  0  0  0  0  0  0  0  0  0
   -0.9726    0.2178   -1.7521 C   0  0  0  0  0  0  0  0  0  0  0  0
   -0.8840   -1.0917   -1.3395 C   0  0  0  0  0  0  0  0  0  0  0  0
    0.2097   -1.7091   -0.5300 C   0  0  0  0  0  0  0  0  0  0  0  0
   -0.2030   -1.9561    0.9188 C   0  0  0  0  0  0  0  0  0  0  0  0
   -0.7638   -0.9362    1.7108 C   0  0  0  0  0  0  0  0  0  0  0  0
   -1.1017   -1.2288    3.0158 C   0  0  0  0  0  0  0  0  0  0  0  0
   -0.8995   -2.4755    3.5564 C   0  0  0  0  0  0  0  0  0  0  0  0
   -0.3441   -3.5000    2.8242 C   0  0  0  0  0  0  0  0  0  0  0  0
    0.0083   -3.2336    1.4968 C   0  0  0  0  0  0  0  0  0  0  0  0
   -1.2992   -2.5507    4.8539 O   0  0  0  0  0  0  0  0  0  0  0  0
   -1.7748   -1.2055    5.0682 C   0  0  0  0  0  0  0  0  0  0  0  0
   -1.6540   -0.3609    3.9054 O   0  0  0  0  0  0  0  0  0  0  0  0
   -1.9934   -1.7529   -1.7934 N   0  0  0  0  0  0  0  0  0  0  0  0
   -2.7940   -0.8858   -2.5072 C   0  0  0  0  0  0  0  0  0  0  0  0
   -4.0150   -1.1135   -3.1529 C   0  0  0  0  0  0  0  0  0  0  0  0
   -4.6164   -0.0311   -3.8022 C   0  0  0  0  0  0  0  0  0  0  0  0
   -4.0204    1.2281   -3.8029 C   0  0  0  0  0  0  0  0  0  0  0  0
   -2.7999    1.4410   -3.1516 C   0  0  0  0  0  0  0  0  0  0  0  0
   -2.1726    0.3662   -2.4930 C   0  0  0  0  0  0  0  0  0  0  0  0
  1  2  1  0
  2  3  1  0
  3  4  1  0
  4  5  2  0
  4  6  1  0
  6  7  1  0
  7  8  1  0
  8  9  2  0
  7 10  1  0
 10 11  1  0
 11 12  2  0
 12 13  1  0
 13 14  1  0
 14 15  2  0
 15 16  1  0
 16 17  2  0
 17 18  1  0
 18 19  2  0
 17 20  1  0
 20 21  1  0
 21 22  1  0
 12 23  1  0
 23 24  1  0
 24 25  2  0
 25 26  1  0
 26 27  2  0
 27 28  1  0
 28 29  2  0
  8  2  1  0
 13  6  1  0
 29 11  1  0
 19 14  1  0
 22 16  1  0
 29 24  1  0
M  END
>  <CID>  (3) 
2

>  <Energy>  (3) 
92.02248499993172

$$$$

     RDKit          3D

 29 34  0  0  0  0  0  0  0  0999 V2000
    5.0833   -0.0711   -0.2918 C   0  0  0  0  0  0  0  0  0  0  0  0
    3.6968    0.3493   -0.2932 N   0  0  0  0  0  0  0  0  0  0  0  0
    3.2999    1.4275    0.6044 C   0  0  0  0  0  0  0  0  0  0  0  0
    1.8733    1.2445    1.1230 C   0  0  0  0  0  0  0  0  0  0  0  0
    1.5181    1.7197    2.2003 O   0  0  0  0  0  0  0  0  0  0  0  0
    1.0005    0.6355    0.2200 N   0  0  0  0  0  0  0  0  0  0  0  0
    1.4189    0.5524   -1.2128 C   0  0  0  0  0  0  0  0  0  0  0  0
    2.8442   -0.0296   -1.3250 C   0  0  0  0  0  0  0  0  0  0  0  0
    3.2295   -0.6655   -2.3039 O   0  0  0  0  0  0  0  0  0  0  0  0
    0.4888   -0.2448   -2.1529 C   0  0  0  0  0  0  0  0  0  0  0  0
   -0.9248    0.0593   -1.8391 C   0  0  0  0  0  0  0  0  0  0  0  0
   -1.2937    0.3756   -0.5520 C   0  0  0  0  0  0  0  0  0  0  0  0
   -0.4018    0.4710    0.6430 C   0  0  0  0  0  0  0  0  0  0  0  0
   -0.5512   -0.7239    1.5812 C   0  0  0  0  0  0  0  0  0  0  0  0
   -0.4554   -2.0477    1.1117 C   0  0  0  0  0  0  0  0  0  0  0  0
   -0.5887   -3.0778    2.0194 C   0  0  0  0  0  0  0  0  0  0  0  0
   -0.8032   -2.8448    3.3562 C   0  0  0  0  0  0  0  0  0  0  0  0
   -0.8926   -1.5682    3.8627 C   0  0  0  0  0  0  0  0  0  0  0  0
   -0.7620   -0.5024    2.9659 C   0  0  0  0  0  0  0  0  0  0  0  0
   -0.9037   -3.9947    4.0748 O   0  0  0  0  0  0  0  0  0  0  0  0
   -0.7254   -4.9792    3.0354 C   0  0  0  0  0  0  0  0  0  0  0  0
   -0.5264   -4.4047    1.7275 O   0  0  0  0  0  0  0  0  0  0  0  0
   -2.6465    0.5844   -0.5402 N   0  0  0  0  0  0  0  0  0  0  0  0
   -3.1555    0.4183   -1.8112 C   0  0  0  0  0  0  0  0  0  0  0  0
   -4.4712    0.5321   -2.2756 C   0  0  0  0  0  0  0  0  0  0  0  0
   -4.7014    0.2973   -3.6346 C   0  0  0  0  0  0  0  0  0  0  0  0
   -3.6569   -0.0400   -4.4926 C   0  0  0  0  0  0  0  0  0  0  0  0
   -2.3465   -0.1516   -4.0135 C   0  0  0  0  0  0  0  0  0  0  0  0
   -2.0884    0.0830   -2.6494 C   0  0  0  0  0  0  0  0  0  0  0  0
  1  2  1  0
  2  3  1  0
  3  4  1  0
  4  5  2  0
  4  6  1  0
  6  7  1  0
  7  8  1  0
  8  9  2  0
  7 10  1  0
 10 11  1  0
 11 12  2  0
 12 13  1  0
 13 14  1  0
 14 15  2  0
 15 16  1  0
 16 17  2  0
 17 18  1  0
 18 19  2  0
 17 20  1  0
 20 21  1  0
 21 22  1  0
 12 23  1  0
 23 24  1  0
 24 25  2  0
 25 26  1  0
 26 27  2  0
 27 28  1  0
 28 29  2  0
  8  2  1  0
 13  6  1  0
 29 11  1  0
 19 14  1  0
 22 16  1  0
 29 24  1  0
M  END
>  <CID>  (4) 
24

>  <Energy>  (4) 
92.02248501812984

$$$$

     RDKit          3D

 29 34  0  0  0  0  0  0  0  0999 V2000
    4.6402    1.5152    0.5653 C   0  0  0  0  0  0  0  0  0  0  0  0
    3.5831    0.7565   -0.0720 N   0  0  0  0  0  0  0  0  0  0  0  0
    3.8688   -0.6101   -0.4918 C   0  0  0  0  0  0  0  0  0  0  0  0
    2.6440   -1.5162   -0.3634 C   0  0  0  0  0  0  0  0  0  0  0  0
    2.7598   -2.7290   -0.1958 O   0  0  0  0  0  0  0  0  0  0  0  0
    1.4237   -0.8798   -0.5959 N   0  0  0  0  0  0  0  0  0  0  0  0
    1.4458    0.4578   -1.2630 C   0  0  0  0  0  0  0  0  0  0  0  0
    2.4464    1.3964   -0.5554 C   0  0  0  0  0  0  0  0  0  0  0  0
    2.3132    2.6182   -0.5332 O   0  0  0  0  0  0  0  0  0  0  0  0
    0.0898    1.1869   -1.3812 C   0  0  0  0  0  0  0  0  0  0  0  0
   -0.9696    0.2227   -1.7514 C   0  0  0  0  0  0  0  0  0  0  0  0
   -0.8847   -1.0878   -1.3410 C   0  0  0  0  0  0  0  0  0  0  0  0
    0.2069   -1.7092   -0.5318 C   0  0  0  0  0  0  0  0  0  0  0  0
   -0.2074   -1.9576    0.9163 C   0  0  0  0  0  0  0  0  0  0  0  0
   -0.7661   -0.9376    1.7097 C   0  0  0  0  0  0  0  0  0  0  0  0
   -1.1055   -1.2315    3.0139 C   0  0  0  0  0  0  0  0  0  0  0  0
   -0.9070   -2.4796    3.5526 C   0  0  0  0  0  0  0  0  0  0  0  0
   -0.3538   -3.5043    2.8191 C   0  0  0  0  0  0  0  0  0  0  0  0
    0.0002   -3.2366    1.4924 C   0  0  0  0  0  0  0  0  0  0  0  0
   -1.3077   -2.5559    4.8497 O   0  0  0  0  0  0  0  0  0  0  0  0
   -1.7799   -1.2098    5.0660 C   0  0  0  0  0  0  0  0  0  0  0  0
   -1.6562   -0.3636    3.9047 O   0  0  0  0  0  0  0  0  0  0  0  0
   -1.9955   -1.7453   -1.7967 N   0  0  0  0  0  0  0  0  0  0  0  0
   -2.7933   -0.8751   -2.5095 C   0  0  0  0  0  0  0  0  0  0  0  0
   -4.0146   -1.0986   -3.1564 C   0  0  0  0  0  0  0  0  0  0  0  0
   -4.6128   -0.0136   -3.8044 C   0  0  0  0  0  0  0  0  0  0  0  0
   -4.0135    1.2441   -3.8025 C   0  0  0  0  0  0  0  0  0  0  0  0
   -2.7929    1.4528   -3.1502 C   0  0  0  0  0  0  0  0  0  0  0  0
   -2.1688    0.3753   -2.4929 C   0  0  0  0  0  0  0  0  0  0  0  0
  1  2  1  0
  2  3  1  0
  3  4  1  0
  4  5  2  0
  4  6  1  0
  6  7  1  0
  7  8  1  0
  8  9  2  0
  7 10  1  0
 10 11  1  0
 11 12  2  0
 12 13  1  0
 13 14  1  0
 14 15  2  0
 15 16  1  0
 16 17  2  0
 17 18  1  0
 18 19  2  0
 17 20  1  0
 20 21  1  0
 21 22  1  0
 12 23  1  0
 23 24  1  0
 24 25  2  0
 25 26  1  0
 26 27  2  0
 27 28  1  0
 28 29  2  0
  8  2  1  0
 13  6  1  0
 29 11  1  0
 19 14  1  0
 22 16  1  0
 29 24  1  0
M  END
>  <CID>  (5) 
46

>  <Energy>  (5) 
92.02248512373731

$$$$

     RDKit          3D

 29 34  0  0  0  0  0  0  0  0999 V2000
    4.6381    1.5230    0.5580 C   0  0  0  0  0  0  0  0  0  0  0  0
    3.5827    0.7581   -0.0747 N   0  0  0  0  0  0  0  0  0  0  0  0
    3.8698   -0.6124   -0.4807 C   0  0  0  0  0  0  0  0  0  0  0  0
    2.6448   -1.5175   -0.3468 C   0  0  0  0  0  0  0  0  0  0  0  0
    2.7605   -2.7287   -0.1673 O   0  0  0  0  0  0  0  0  0  0  0  0
    1.4250   -0.8837   -0.5884 N   0  0  0  0  0  0  0  0  0  0  0  0
    1.4486    0.4475   -1.2682 C   0  0  0  0  0  0  0  0  0  0  0  0
    2.4471    1.3930   -0.5671 C   0  0  0  0  0  0  0  0  0  0  0  0
    2.3136    2.6150   -0.5570 O   0  0  0  0  0  0  0  0  0  0  0  0
    0.0927    1.1752   -1.3968 C   0  0  0  0  0  0  0  0  0  0  0  0
   -0.9656    0.2071   -1.7606 C   0  0  0  0  0  0  0  0  0  0  0  0
   -0.8814   -1.0993   -1.3375 C   0  0  0  0  0  0  0  0  0  0  0  0
    0.2083   -1.7128   -0.5196 C   0  0  0  0  0  0  0  0  0  0  0  0
   -0.2097   -1.9475    0.9297 C   0  0  0  0  0  0  0  0  0  0  0  0
   -0.7707   -0.9202    1.7119 C   0  0  0  0  0  0  0  0  0  0  0  0
   -1.1136   -1.2018    3.0180 C   0  0  0  0  0  0  0  0  0  0  0  0
   -0.9162   -2.4447    3.5690 C   0  0  0  0  0  0  0  0  0  0  0  0
   -0.3607   -3.4762    2.8467 C   0  0  0  0  0  0  0  0  0  0  0  0
   -0.0033   -3.2210    1.5184 C   0  0  0  0  0  0  0  0  0  0  0  0
   -1.3203   -2.5088    4.8657 O   0  0  0  0  0  0  0  0  0  0  0  0
   -1.7934   -1.1609    5.0680 C   0  0  0  0  0  0  0  0  0  0  0  0
   -1.6668   -0.3257    3.8991 O   0  0  0  0  0  0  0  0  0  0  0  0
   -1.9909   -1.7615   -1.7897 N   0  0  0  0  0  0  0  0  0  0  0  0
   -2.7871   -0.8982   -2.5128 C   0  0  0  0  0  0  0  0  0  0  0  0
   -4.0067   -1.1281   -3.1606 C   0  0  0  0  0  0  0  0  0  0  0  0
   -4.6035   -0.0495   -3.8204 C   0  0  0  0  0  0  0  0  0  0  0  0
   -4.0045    1.2083   -3.8289 C   0  0  0  0  0  0  0  0  0  0  0  0
   -2.7856    1.4235   -3.1755 C   0  0  0  0  0  0  0  0  0  0  0  0
   -2.1629    0.3524   -2.5064 C   0  0  0  0  0  0  0  0  0  0  0  0
  1  2  1  0
  2  3  1  0
  3  4  1  0
  4  5  2  0
  4  6  1  0
  6  7  1  0
  7  8  1  0
  8  9  2  0
  7 10  1  0
 10 11  1  0
 11 12  2  0
 12 13  1  0
 13 14  1  0
 14 15  2  0
 15 16  1  0
 16 17  2  0
 17 18  1  0
 18 19  2  0
 17 20  1  0
 20 21  1  0
 21 22  1  0
 12 23  1  0
 23 24  1  0
 24 25  2  0
 25 26  1  0
 26 27  2  0
 27 28  1  0
 28 29  2  0
  8  2  1  0
 13  6  1  0
 29 11  1  0
 19 14  1  0
 22 16  1  0
 29 24  1  0
M  END
>  <CID>  (6) 
7

>  <Energy>  (6) 
92.02248530260871

$$$$

     RDKit          3D

 29 34  0  0  0  0  0  0  0  0999 V2000
    4.6289    1.5375    0.5769 C   0  0  0  0  0  0  0  0  0  0  0  0
    3.5770    0.7737   -0.0628 N   0  0  0  0  0  0  0  0  0  0  0  0
    3.8701   -0.5918   -0.4813 C   0  0  0  0  0  0  0  0  0  0  0  0
    2.6492   -1.5035   -0.3558 C   0  0  0  0  0  0  0  0  0  0  0  0
    2.7702   -2.7157   -0.1874 O   0  0  0  0  0  0  0  0  0  0  0  0
    1.4266   -0.8729   -0.5917 N   0  0  0  0  0  0  0  0  0  0  0  0
    1.4443    0.4646   -1.2593 C   0  0  0  0  0  0  0  0  0  0  0  0
    2.4386    1.4080   -0.5495 C   0  0  0  0  0  0  0  0  0  0  0  0
    2.2996    2.6292   -0.5281 O   0  0  0  0  0  0  0  0  0  0  0  0
    0.0851    1.1873   -1.3814 C   0  0  0  0  0  0  0  0  0  0  0  0
   -0.9688    0.2180   -1.7540 C   0  0  0  0  0  0  0  0  0  0  0  0
   -0.8788   -1.0919   -1.3428 C   0  0  0  0  0  0  0  0  0  0  0  0
    0.2136   -1.7079   -0.5305 C   0  0  0  0  0  0  0  0  0  0  0  0
   -0.2034   -1.9577    0.9166 C   0  0  0  0  0  0  0  0  0  0  0  0
   -0.7690   -0.9400    1.7081 C   0  0  0  0  0  0  0  0  0  0  0  0
   -1.1105   -1.2349    3.0115 C   0  0  0  0  0  0  0  0  0  0  0  0
   -0.9076   -2.4819    3.5513 C   0  0  0  0  0  0  0  0  0  0  0  0
   -0.3476   -3.5043    2.8196 C   0  0  0  0  0  0  0  0  0  0  0  0
    0.0086   -3.2355    1.4937 C   0  0  0  0  0  0  0  0  0  0  0  0
   -1.3113   -2.5595    4.8473 O   0  0  0  0  0  0  0  0  0  0  0  0
   -1.7903   -1.2156    5.0618 C   0  0  0  0  0  0  0  0  0  0  0  0
   -1.6676   -0.3693    3.9005 O   0  0  0  0  0  0  0  0  0  0  0  0
   -1.9853   -1.7548   -1.8012 N   0  0  0  0  0  0  0  0  0  0  0  0
   -2.7854   -0.8885   -2.5164 C   0  0  0  0  0  0  0  0  0  0  0  0
   -4.0039   -1.1180   -3.1664 C   0  0  0  0  0  0  0  0  0  0  0  0
   -4.6055   -0.0360   -3.8164 C   0  0  0  0  0  0  0  0  0  0  0  0
   -4.0121    1.2244   -3.8134 C   0  0  0  0  0  0  0  0  0  0  0  0
   -2.7941    1.4391   -3.1580 C   0  0  0  0  0  0  0  0  0  0  0  0
   -2.1667    0.3648   -2.4986 C   0  0  0  0  0  0  0  0  0  0  0  0
  1  2  1  0
  2  3  1  0
  3  4  1  0
  4  5  2  0
  4  6  1  0
  6  7  1  0
  7  8  1  0
  8  9  2  0
  7 10  1  0
 10 11  1  0
 11 12  2  0
 12 13  1  0
 13 14  1  0
 14 15  2  0
 15 16  1  0
 16 17  2  0
 17 18  1  0
 18 19  2  0
 17 20  1  0
 20 21  1  0
 21 22  1  0
 12 23  1  0
 23 24  1  0
 24 25  2  0
 25 26  1  0
 26 27  2  0
 27 28  1  0
 28 29  2  0
  8  2  1  0
 13  6  1  0
 29 11  1  0
 19 14  1  0
 22 16  1  0
 29 24  1  0
M  END
>  <CID>  (7) 
20

>  <Energy>  (7) 
92.02248531806674

$$$$

     RDKit          3D

 29 34  0  0  0  0  0  0  0  0999 V2000
    5.0842   -0.0775   -0.2830 C   0  0  0  0  0  0  0  0  0  0  0  0
    3.6980    0.3441   -0.2942 N   0  0  0  0  0  0  0  0  0  0  0  0
    3.2995    1.4347    0.5875 C   0  0  0  0  0  0  0  0  0  0  0  0
    1.8713    1.2600    1.1045 C   0  0  0  0  0  0  0  0  0  0  0  0
    1.5133    1.7502    2.1741 O   0  0  0  0  0  0  0  0  0  0  0  0
    1.0005    0.6394    0.2074 N   0  0  0  0  0  0  0  0  0  0  0  0
    1.4229    0.5365   -1.2230 C   0  0  0  0  0  0  0  0  0  0  0  0
    2.8480   -0.0482   -1.3231 C   0  0  0  0  0  0  0  0  0  0  0  0
    3.2356   -0.6978   -2.2921 O   0  0  0  0  0  0  0  0  0  0  0  0
    0.4949   -0.2728   -2.1548 C   0  0  0  0  0  0  0  0  0  0  0  0
   -0.9194    0.0367   -1.8492 C   0  0  0  0  0  0  0  0  0  0  0  0
   -1.2917    0.3709   -0.5676 C   0  0  0  0  0  0  0  0  0  0  0  0
   -0.4031    0.4819    0.6286 C   0  0  0  0  0  0  0  0  0  0  0  0
   -0.5562   -0.6999    1.5826 C   0  0  0  0  0  0  0  0  0  0  0  0
   -0.4600   -2.0300    1.1316 C   0  0  0  0  0  0  0  0  0  0  0  0
   -0.5970   -3.0474    2.0530 C   0  0  0  0  0  0  0  0  0  0  0  0
   -0.8155   -2.7959    3.3858 C   0  0  0  0  0  0  0  0  0  0  0  0
   -0.9054   -1.5124    3.8744 C   0  0  0  0  0  0  0  0  0  0  0  0
   -0.7712   -0.4591    2.9635 C   0  0  0  0  0  0  0  0  0  0  0  0
   -0.9191   -3.9357    4.1199 O   0  0  0  0  0  0  0  0  0  0  0  0
   -0.7383   -4.9346    3.0946 C   0  0  0  0  0  0  0  0  0  0  0  0
   -0.5349   -4.3783    1.7796 O   0  0  0  0  0  0  0  0  0  0  0  0
   -2.6445    0.5806   -0.5624 N   0  0  0  0  0  0  0  0  0  0  0  0
   -3.1499    0.3976   -1.8325 C   0  0  0  0  0  0  0  0  0  0  0  0
   -4.4642    0.5060   -2.3022 C   0  0  0  0  0  0  0  0  0  0  0  0
   -4.6907    0.2529   -3.6585 C   0  0  0  0  0  0  0  0  0  0  0  0
   -3.6440   -0.0967   -4.5089 C   0  0  0  0  0  0  0  0  0  0  0  0
   -2.3351   -0.2028   -4.0246 C   0  0  0  0  0  0  0  0  0  0  0  0
   -2.0806    0.0502   -2.6631 C   0  0  0  0  0  0  0  0  0  0  0  0
  1  2  1  0
  2  3  1  0
  3  4  1  0
  4  5  2  0
  4  6  1  0
  6  7  1  0
  7  8  1  0
  8  9  2  0
  7 10  1  0
 10 11  1  0
 11 12  2  0
 12 13  1  0
 13 14  1  0
 14 15  2  0
 15 16  1  0
 16 17  2  0
 17 18  1  0
 18 19  2  0
 17 20  1  0
 20 21  1  0
 21 22  1  0
 12 23  1  0
 23 24  1  0
 24 25  2  0
 25 26  1  0
 26 27  2  0
 27 28  1  0
 28 29  2  0
  8  2  1  0
 13  6  1  0
 29 11  1  0
 19 14  1  0
 22 16  1  0
 29 24  1  0
M  END
>  <CID>  (8) 
41

>  <Energy>  (8) 
92.02248982182415

$$$$

     RDKit          3D

 29 34  0  0  0  0  0  0  0  0999 V2000
    5.0832   -0.0727   -0.2808 C   0  0  0  0  0  0  0  0  0  0  0  0
    3.6968    0.3483   -0.2881 N   0  0  0  0  0  0  0  0  0  0  0  0
    3.2979    1.4318    0.6021 C   0  0  0  0  0  0  0  0  0  0  0  0
    1.8702    1.2516    1.1184 C   0  0  0  0  0  0  0  0  0  0  0  0
    1.5124    1.7324    2.1924 O   0  0  0  0  0  0  0  0  0  0  0  0
    0.9995    0.6378    0.2166 N   0  0  0  0  0  0  0  0  0  0  0  0
    1.4215    0.5469   -1.2147 C   0  0  0  0  0  0  0  0  0  0  0  0
    2.8468   -0.0363   -1.3199 C   0  0  0  0  0  0  0  0  0  0  0  0
    3.2344   -0.6781   -2.2941 O   0  0  0  0  0  0  0  0  0  0  0  0
    0.4935   -0.2549   -2.1530 C   0  0  0  0  0  0  0  0  0  0  0  0
   -0.9208    0.0512   -1.8442 C   0  0  0  0  0  0  0  0  0  0  0  0
   -1.2929    0.3735   -0.5594 C   0  0  0  0  0  0  0  0  0  0  0  0
   -0.4037    0.4749    0.6372 C   0  0  0  0  0  0  0  0  0  0  0  0
   -0.5550   -0.7153    1.5811 C   0  0  0  0  0  0  0  0  0  0  0  0
   -0.4594   -2.0415    1.1183 C   0  0  0  0  0  0  0  0  0  0  0  0
   -0.5944   -3.0669    2.0310 C   0  0  0  0  0  0  0  0  0  0  0  0
   -0.8105   -2.8270    3.3664 C   0  0  0  0  0  0  0  0  0  0  0  0
   -0.8997   -1.5478    3.8663 C   0  0  0  0  0  0  0  0  0  0  0  0
   -0.7673   -0.4867    2.9643 C   0  0  0  0  0  0  0  0  0  0  0  0
   -0.9125   -3.9732    4.0907 O   0  0  0  0  0  0  0  0  0  0  0  0
   -0.7335   -4.9630    3.0564 C   0  0  0  0  0  0  0  0  0  0  0  0
   -0.5327   -4.3953    1.7459 O   0  0  0  0  0  0  0  0  0  0  0  0
   -2.6459    0.5815   -0.5517 N   0  0  0  0  0  0  0  0  0  0  0  0
   -3.1517    0.4094   -1.8231 C   0  0  0  0  0  0  0  0  0  0  0  0
   -4.4665    0.5201   -2.2911 C   0  0  0  0  0  0  0  0  0  0  0  0
   -4.6933    0.2793   -3.6495 C   0  0  0  0  0  0  0  0  0  0  0  0
   -3.6465   -0.0605   -4.5038 C   0  0  0  0  0  0  0  0  0  0  0  0
   -2.3371   -0.1689   -4.0212 C   0  0  0  0  0  0  0  0  0  0  0  0
   -2.0824    0.0714   -2.6574 C   0  0  0  0  0  0  0  0  0  0  0  0
  1  2  1  0
  2  3  1  0
  3  4  1  0
  4  5  2  0
  4  6  1  0
  6  7  1  0
  7  8  1  0
  8  9  2  0
  7 10  1  0
 10 11  1  0
 11 12  2  0
 12 13  1  0
 13 14  1  0
 14 15  2  0
 15 16  1  0
 16 17  2  0
 17 18  1  0
 18 19  2  0
 17 20  1  0
 20 21  1  0
 21 22  1  0
 12 23  1  0
 23 24  1  0
 24 25  2  0
 25 26  1  0
 26 27  2  0
 27 28  1  0
 28 29  2  0
  8  2  1  0
 13  6  1  0
 29 11  1  0
 19 14  1  0
 22 16  1  0
 29 24  1  0
M  END
>  <CID>  (9) 
33

>  <Energy>  (9) 
92.02267997591444

$$$$

     RDKit          3D

 29 34  0  0  0  0  0  0  0  0999 V2000
    4.6417    1.5149    0.5519 C   0  0  0  0  0  0  0  0  0  0  0  0
    3.5850    0.7494   -0.0779 N   0  0  0  0  0  0  0  0  0  0  0  0
    3.8694   -0.6235   -0.4777 C   0  0  0  0  0  0  0  0  0  0  0  0
    2.6422   -1.5251   -0.3414 C   0  0  0  0  0  0  0  0  0  0  0  0
    2.7547   -2.7358   -0.1569 O   0  0  0  0  0  0  0  0  0  0  0  0
    1.4240   -0.8895   -0.5869 N   0  0  0  0  0  0  0  0  0  0  0  0
    1.4513    0.4387   -1.2724 C   0  0  0  0  0  0  0  0  0  0  0  0
    2.4516    1.3849   -0.5746 C   0  0  0  0  0  0  0  0  0  0  0  0
    2.3214    2.6073   -0.5705 O   0  0  0  0  0  0  0  0  0  0  0  0
    0.0973    1.1692   -1.4051 C   0  0  0  0  0  0  0  0  0  0  0  0
   -0.9634    0.2022   -1.7649 C   0  0  0  0  0  0  0  0  0  0  0  0
   -0.8827   -1.1025   -1.3360 C   0  0  0  0  0  0  0  0  0  0  0  0
    0.2053   -1.7153   -0.5153 C   0  0  0  0  0  0  0  0  0  0  0  0
   -0.2138   -1.9432    0.9348 C   0  0  0  0  0  0  0  0  0  0  0  0
   -0.7716   -0.9111    1.7129 C   0  0  0  0  0  0  0  0  0  0  0  0
   -1.1149   -1.1864    3.0202 C   0  0  0  0  0  0  0  0  0  0  0  0
   -0.9219   -2.4279    3.5760 C   0  0  0  0  0  0  0  0  0  0  0  0
   -0.3703   -3.4641    2.8575 C   0  0  0  0  0  0  0  0  0  0  0  0
   -0.0116   -3.2150    1.5285 C   0  0  0  0  0  0  0  0  0  0  0  0
   -1.3265   -2.4857    4.8728 O   0  0  0  0  0  0  0  0  0  0  0  0
   -1.7920   -1.1346    5.0709 C   0  0  0  0  0  0  0  0  0  0  0  0
   -1.6648   -0.3049    3.8980 O   0  0  0  0  0  0  0  0  0  0  0  0
   -1.9941   -1.7636   -1.7850 N   0  0  0  0  0  0  0  0  0  0  0  0
   -2.7882   -0.9014   -2.5117 C   0  0  0  0  0  0  0  0  0  0  0  0
   -4.0087   -1.1306   -3.1578 C   0  0  0  0  0  0  0  0  0  0  0  0
   -4.6027   -0.0533   -3.8222 C   0  0  0  0  0  0  0  0  0  0  0  0
   -3.9999    1.2026   -3.8371 C   0  0  0  0  0  0  0  0  0  0  0  0
   -2.7801    1.4172   -3.1853 C   0  0  0  0  0  0  0  0  0  0  0  0
   -2.1603    0.3474   -2.5114 C   0  0  0  0  0  0  0  0  0  0  0  0
  1  2  1  0
  2  3  1  0
  3  4  1  0
  4  5  2  0
  4  6  1  0
  6  7  1  0
  7  8  1  0
  8  9  2  0
  7 10  1  0
 10 11  1  0
 11 12  2  0
 12 13  1  0
 13 14  1  0
 14 15  2  0
 15 16  1  0
 16 17  2  0
 17 18  1  0
 18 19  2  0
 17 20  1  0
 20 21  1  0
 21 22  1  0
 12 23  1  0
 23 24  1  0
 24 25  2  0
 25 26  1  0
 26 27  2  0
 27 28  1  0
 28 29  2  0
  8  2  1  0
 13  6  1  0
 29 11  1  0
 19 14  1  0
 22 16  1  0
 29 24  1  0
M  END
>  <CID>  (10) 
11

>  <Energy>  (10) 
92.0227729372302

$$$$

     RDKit          3D

 29 34  0  0  0  0  0  0  0  0999 V2000
    5.0755    0.3862   -0.1720 C   0  0  0  0  0  0  0  0  0  0  0  0
    3.6511    0.6510   -0.1526 N   0  0  0  0  0  0  0  0  0  0  0  0
    3.1160    1.4765    0.9233 C   0  0  0  0  0  0  0  0  0  0  0  0
    1.7068    1.0449    1.3291 C   0  0  0  0  0  0  0  0  0  0  0  0
    1.2753    1.2529    2.4617 O   0  0  0  0  0  0  0  0  0  0  0  0
    0.9281    0.5444    0.2841 N   0  0  0  0  0  0  0  0  0  0  0  0
    1.3863    0.7981   -1.1159 C   0  0  0  0  0  0  0  0  0  0  0  0
    2.8701    0.4029   -1.2763 C   0  0  0  0  0  0  0  0  0  0  0  0
    3.3460    0.0199   -2.3432 O   0  0  0  0  0  0  0  0  0  0  0  0
    0.5759    0.1112   -2.2368 C   0  0  0  0  0  0  0  0  0  0  0  0
   -0.8702    0.1852   -1.9339 C   0  0  0  0  0  0  0  0  0  0  0  0
   -1.3039    0.2010   -0.6284 C   0  0  0  0  0  0  0  0  0  0  0  0
   -0.4598    0.1647    0.6037 C   0  0  0  0  0  0  0  0  0  0  0  0
   -0.5099   -1.1934    1.2980 C   0  0  0  0  0  0  0  0  0  0  0  0
   -0.8781   -1.2662    2.6547 C   0  0  0  0  0  0  0  0  0  0  0  0
   -0.9125   -2.5048    3.2604 C   0  0  0  0  0  0  0  0  0  0  0  0
   -0.5933   -3.6547    2.5797 C   0  0  0  0  0  0  0  0  0  0  0  0
   -0.2201   -3.6314    1.2550 C   0  0  0  0  0  0  0  0  0  0  0  0
   -0.1764   -2.3891    0.6129 C   0  0  0  0  0  0  0  0  0  0  0  0
   -0.6892   -4.7642    3.3598 O   0  0  0  0  0  0  0  0  0  0  0  0
   -1.0943   -4.1782    4.6142 C   0  0  0  0  0  0  0  0  0  0  0  0
   -1.2503   -2.7453    4.5557 O   0  0  0  0  0  0  0  0  0  0  0  0
   -2.6722    0.2470   -0.6391 N   0  0  0  0  0  0  0  0  0  0  0  0
   -3.1282    0.2730   -1.9403 C   0  0  0  0  0  0  0  0  0  0  0  0
   -4.4372    0.3224   -2.4342 C   0  0  0  0  0  0  0  0  0  0  0  0
   -4.6062    0.3313   -3.8221 C   0  0  0  0  0  0  0  0  0  0  0  0
   -3.5093    0.2901   -4.6800 C   0  0  0  0  0  0  0  0  0  0  0  0
   -2.2062    0.2392   -4.1715 C   0  0  0  0  0  0  0  0  0  0  0  0
   -2.0095    0.2323   -2.7772 C   0  0  0  0  0  0  0  0  0  0  0  0
  1  2  1  0
  2  3  1  0
  3  4  1  0
  4  5  2  0
  4  6  1  0
  6  7  1  0
  7  8  1  0
  8  9  2  0
  7 10  1  0
 10 11  1  0
 11 12  2  0
 12 13  1  0
 13 14  1  0
 14 15  2  0
 15 16  1  0
 16 17  2  0
 17 18  1  0
 18 19  2  0
 17 20  1  0
 20 21  1  0
 21 22  1  0
 12 23  1  0
 23 24  1  0
 24 25  2  0
 25 26  1  0
 26 27  2  0
 27 28  1  0
 28 29  2  0
  8  2  1  0
 13  6  1  0
 29 11  1  0
 19 14  1  0
 22 16  1  0
 29 24  1  0
M  END
>  <CID>  (11) 
21

>  <Energy>  (11) 
92.0291379394757

$$$$
