
     RDKit          3D

 29 34  0  0  0  0  0  0  0  0999 V2000
   -2.5592    5.1796   -0.0829 C   0  0  0  0  0  0  0  0  0  0  0  0
   -1.8529    3.9169   -0.1355 N   0  0  0  0  0  0  0  0  0  0  0  0
   -0.4106    3.9263   -0.1636 C   0  0  0  0  0  0  0  0  0  0  0  0
    0.1619    2.6177    0.2387 C   0  0  0  0  0  0  0  0  0  0  0  0
    1.3366    2.6211    0.6992 O   0  0  0  0  0  0  0  0  0  0  0  0
   -0.5387    1.3944    0.1298 N   0  0  0  0  0  0  0  0  0  0  0  0
   -1.9062    1.3913   -0.3390 C   0  0  0  0  0  0  0  0  0  0  0  0
   -2.5611    2.7074   -0.1586 C   0  0  0  0  0  0  0  0  0  0  0  0
   -3.8313    2.7016   -0.0207 O   0  0  0  0  0  0  0  0  0  0  0  0
   -2.6362    0.2904    0.4418 C   0  0  0  0  0  0  0  0  0  0  0  0
   -2.0110   -1.0042   -0.0070 C   0  0  0  0  0  0  0  0  0  0  0  0
   -0.6300   -1.0473    0.0191 C   0  0  0  0  0  0  0  0  0  0  0  0
    0.0793    0.1496    0.4759 C   0  0  0  0  0  0  0  0  0  0  0  0
    1.5291    0.1161    0.1847 C   0  0  0  0  0  0  0  0  0  0  0  0
    2.3565   -0.4052    1.1592 C   0  0  0  0  0  0  0  0  0  0  0  0
    3.7244   -0.4848    0.9931 C   0  0  0  0  0  0  0  0  0  0  0  0
    4.3063   -0.0374   -0.1713 C   0  0  0  0  0  0  0  0  0  0  0  0
    3.4710    0.4849   -1.1463 C   0  0  0  0  0  0  0  0  0  0  0  0
    2.1028    0.5613   -0.9726 C   0  0  0  0  0  0  0  0  0  0  0  0
    5.6615   -0.2434   -0.0471 O   0  0  0  0  0  0  0  0  0  0  0  0
    5.9277   -0.7906    1.2425 C   0  0  0  0  0  0  0  0  0  0  0  0
    4.6855   -0.9725    1.8573 O   0  0  0  0  0  0  0  0  0  0  0  0
   -0.2826   -2.2860   -0.4198 N   0  0  0  0  0  0  0  0  0  0  0  0
   -1.3755   -3.0014   -0.7122 C   0  0  0  0  0  0  0  0  0  0  0  0
   -1.6188   -4.2859   -1.1854 C   0  0  0  0  0  0  0  0  0  0  0  0
   -2.9018   -4.7286   -1.3847 C   0  0  0  0  0  0  0  0  0  0  0  0
   -3.9885   -3.9139   -1.1220 C   0  0  0  0  0  0  0  0  0  0  0  0
   -3.7706   -2.6431   -0.6545 C   0  0  0  0  0  0  0  0  0  0  0  0
   -2.4676   -2.2142   -0.4597 C   0  0  0  0  0  0  0  0  0  0  0  0
  1  2  1  0
  2  3  1  0
  3  4  1  0
  4  5  2  0
  4  6  1  0
  6  7  1  0
  7  8  1  0
  8  9  2  0
  7 10  1  0
 10 11  1  0
 11 12  2  0
 12 13  1  0
 13 14  1  0
 14 15  2  0
 15 16  1  0
 16 17  2  0
 17 18  1  0
 18 19  2  0
 17 20  1  0
 20 21  1  0
 21 22  1  0
 12 23  1  0
 23 24  1  0
 24 25  2  0
 25 26  1  0
 26 27  2  0
 27 28  1  0
 28 29  2  0
  8  2  1  0
 13  6  1  0
 29 11  1  0
 19 14  1  0
 22 16  1  0
 29 24  1  0
M  END
>  <CID>  (1) 
-1

>  <Energy>  (1) 


$$$$

     RDKit          3D

 29 34  0  0  0  0  0  0  0  0999 V2000
    4.6355    1.5283    0.5589 C   0  0  0  0  0  0  0  0  0  0  0  0
    3.5799    0.7660   -0.0765 N   0  0  0  0  0  0  0  0  0  0  0  0
    3.8688   -0.6006   -0.4943 C   0  0  0  0  0  0  0  0  0  0  0  0
    2.6464   -1.5096   -0.3636 C   0  0  0  0  0  0  0  0  0  0  0  0
    2.7654   -2.7218   -0.1941 O   0  0  0  0  0  0  0  0  0  0  0  0
    1.4243   -0.8767   -0.5963 N   0  0  0  0  0  0  0  0  0  0  0  0
    1.4426    0.4599   -1.2656 C   0  0  0  0  0  0  0  0  0  0  0  0
    2.4413    1.4021   -0.5602 C   0  0  0  0  0  0  0  0  0  0  0  0
    2.3050    2.6237   -0.5399 O   0  0  0  0  0  0  0  0  0  0  0  0
    0.0847    1.1854   -1.3841 C   0  0  0  0  0  0  0  0  0  0  0  0
   -0.9726    0.2178   -1.7521 C   0  0  0  0  0  0  0  0  0  0  0  0
   -0.8840   -1.0917   -1.3395 C   0  0  0  0  0  0  0  0  0  0  0  0
    0.2097   -1.7091   -0.5300 C   0  0  0  0  0  0  0  0  0  0  0  0
   -0.2030   -1.9561    0.9188 C   0  0  0  0  0  0  0  0  0  0  0  0
   -0.7638   -0.9362    1.7108 C   0  0  0  0  0  0  0  0  0  0  0  0
   -1.1017   -1.2288    3.0158 C   0  0  0  0  0  0  0  0  0  0  0  0
   -0.8995   -2.4755    3.5564 C   0  0  0  0  0  0  0  0  0  0  0  0
   -0.3441   -3.5000    2.8242 C   0  0  0  0  0  0  0  0  0  0  0  0
    0.0083   -3.2336    1.4968 C   0  0  0  0  0  0  0  0  0  0  0  0
   -1.2992   -2.5507    4.8539 O   0  0  0  0  0  0  0  0  0  0  0  0
   -1.7748   -1.2055    5.0682 C   0  0  0  0  0  0  0  0  0  0  0  0
   -1.6540   -0.3609    3.9054 O   0  0  0  0  0  0  0  0  0  0  0  0
   -1.9934   -1.7529   -1.7934 N   0  0  0  0  0  0  0  0  0  0  0  0
   -2.7940   -0.8858   -2.5072 C   0  0  0  0  0  0  0  0  0  0  0  0
   -4.0150   -1.1135   -3.1529 C   0  0  0  0  0  0  0  0  0  0  0  0
   -4.6164   -0.0311   -3.8022 C   0  0  0  0  0  0  0  0  0  0  0  0
   -4.0204    1.2281   -3.8029 C   0  0  0  0  0  0  0  0  0  0  0  0
   -2.7999    1.4410   -3.1516 C   0  0  0  0  0  0  0  0  0  0  0  0
   -2.1726    0.3662   -2.4930 C   0  0  0  0  0  0  0  0  0  0  0  0
  1  2  1  0
  2  3  1  0
  3  4  1  0
  4  5  2  0
  4  6  1  0
  6  7  1  0
  7  8  1  0
  8  9  2  0
  7 10  1  0
 10 11  1  0
 11 12  2  0
 12 13  1  0
 13 14  1  0
 14 15  2  0
 15 16  1  0
 16 17  2  0
 17 18  1  0
 18 19  2  0
 17 20  1  0
 20 21  1  0
 21 22  1  0
 12 23  1  0
 23 24  1  0
 24 25  2  0
 25 26  1  0
 26 27  2  0
 27 28  1  0
 28 29  2  0
  8  2  1  0
 13  6  1  0
 29 11  1  0
 19 14  1  0
 22 16  1  0
 29 24  1  0
M  END
>  <CID>  (2) 
2

>  <Energy>  (2) 
92.02248499993172

$$$$

     RDKit          3D

 29 34  0  0  0  0  0  0  0  0999 V2000
    4.6381    1.5230    0.5580 C   0  0  0  0  0  0  0  0  0  0  0  0
    3.5827    0.7581   -0.0747 N   0  0  0  0  0  0  0  0  0  0  0  0
    3.8698   -0.6124   -0.4807 C   0  0  0  0  0  0  0  0  0  0  0  0
    2.6448   -1.5175   -0.3468 C   0  0  0  0  0  0  0  0  0  0  0  0
    2.7605   -2.7287   -0.1673 O   0  0  0  0  0  0  0  0  0  0  0  0
    1.4250   -0.8837   -0.5884 N   0  0  0  0  0  0  0  0  0  0  0  0
    1.4486    0.4475   -1.2682 C   0  0  0  0  0  0  0  0  0  0  0  0
    2.4471    1.3930   -0.5671 C   0  0  0  0  0  0  0  0  0  0  0  0
    2.3136    2.6150   -0.5570 O   0  0  0  0  0  0  0  0  0  0  0  0
    0.0927    1.1752   -1.3968 C   0  0  0  0  0  0  0  0  0  0  0  0
   -0.9656    0.2071   -1.7606 C   0  0  0  0  0  0  0  0  0  0  0  0
   -0.8814   -1.0993   -1.3375 C   0  0  0  0  0  0  0  0  0  0  0  0
    0.2083   -1.7128   -0.5196 C   0  0  0  0  0  0  0  0  0  0  0  0
   -0.2097   -1.9475    0.9297 C   0  0  0  0  0  0  0  0  0  0  0  0
   -0.7707   -0.9202    1.7119 C   0  0  0  0  0  0  0  0  0  0  0  0
   -1.1136   -1.2018    3.0180 C   0  0  0  0  0  0  0  0  0  0  0  0
   -0.9162   -2.4447    3.5690 C   0  0  0  0  0  0  0  0  0  0  0  0
   -0.3607   -3.4762    2.8467 C   0  0  0  0  0  0  0  0  0  0  0  0
   -0.0033   -3.2210    1.5184 C   0  0  0  0  0  0  0  0  0  0  0  0
   -1.3203   -2.5088    4.8657 O   0  0  0  0  0  0  0  0  0  0  0  0
   -1.7934   -1.1609    5.0680 C   0  0  0  0  0  0  0  0  0  0  0  0
   -1.6668   -0.3257    3.8991 O   0  0  0  0  0  0  0  0  0  0  0  0
   -1.9909   -1.7615   -1.7897 N   0  0  0  0  0  0  0  0  0  0  0  0
   -2.7871   -0.8982   -2.5128 C   0  0  0  0  0  0  0  0  0  0  0  0
   -4.0067   -1.1281   -3.1606 C   0  0  0  0  0  0  0  0  0  0  0  0
   -4.6035   -0.0495   -3.8204 C   0  0  0  0  0  0  0  0  0  0  0  0
   -4.0045    1.2083   -3.8289 C   0  0  0  0  0  0  0  0  0  0  0  0
   -2.7856    1.4235   -3.1755 C   0  0  0  0  0  0  0  0  0  0  0  0
   -2.1629    0.3524   -2.5064 C   0  0  0  0  0  0  0  0  0  0  0  0
  1  2  1  0
  2  3  1  0
  3  4  1  0
  4  5  2  0
  4  6  1  0
  6  7  1  0
  7  8  1  0
  8  9  2  0
  7 10  1  0
 10 11  1  0
 11 12  2  0
 12 13  1  0
 13 14  1  0
 14 15  2  0
 15 16  1  0
 16 17  2  0
 17 18  1  0
 18 19  2  0
 17 20  1  0
 20 21  1  0
 21 22  1  0
 12 23  1  0
 23 24  1  0
 24 25  2  0
 25 26  1  0
 26 27  2  0
 27 28  1  0
 28 29  2  0
  8  2  1  0
 13  6  1  0
 29 11  1  0
 19 14  1  0
 22 16  1  0
 29 24  1  0
M  END
>  <CID>  (3) 
7

>  <Energy>  (3) 
92.02248530260871

$$$$

     RDKit          3D

 29 34  0  0  0  0  0  0  0  0999 V2000
    5.0630    0.3291   -0.1427 C   0  0  0  0  0  0  0  0  0  0  0  0
    3.6433    0.6190   -0.1374 N   0  0  0  0  0  0  0  0  0  0  0  0
    3.1120    1.4572    0.9308 C   0  0  0  0  0  0  0  0  0  0  0  0
    1.6966    1.0421    1.3325 C   0  0  0  0  0  0  0  0  0  0  0  0
    1.2624    1.2601    2.4621 O   0  0  0  0  0  0  0  0  0  0  0  0
    0.9182    0.5431    0.2863 N   0  0  0  0  0  0  0  0  0  0  0  0
    1.3853    0.7869   -1.1126 C   0  0  0  0  0  0  0  0  0  0  0  0
    2.8652    0.3729   -1.2638 C   0  0  0  0  0  0  0  0  0  0  0  0
    3.3417   -0.0229   -2.3257 O   0  0  0  0  0  0  0  0  0  0  0  0
    0.5714    0.1084   -2.2357 C   0  0  0  0  0  0  0  0  0  0  0  0
   -0.8749    0.1980   -1.9377 C   0  0  0  0  0  0  0  0  0  0  0  0
   -1.3127    0.2163   -0.6335 C   0  0  0  0  0  0  0  0  0  0  0  0
   -0.4722    0.1685    0.6010 C   0  0  0  0  0  0  0  0  0  0  0  0
   -0.5273   -1.1926    1.2901 C   0  0  0  0  0  0  0  0  0  0  0  0
   -0.8331   -1.2622    2.6629 C   0  0  0  0  0  0  0  0  0  0  0  0
   -0.8657   -2.5018    3.2670 C   0  0  0  0  0  0  0  0  0  0  0  0
   -0.6046   -3.6564    2.5693 C   0  0  0  0  0  0  0  0  0  0  0  0
   -0.2937   -3.6367    1.2285 C   0  0  0  0  0  0  0  0  0  0  0  0
   -0.2515   -2.3933    0.5880 C   0  0  0  0  0  0  0  0  0  0  0  0
   -0.6874   -4.7660    3.3510 O   0  0  0  0  0  0  0  0  0  0  0  0
   -1.0140   -4.1747    4.6259 C   0  0  0  0  0  0  0  0  0  0  0  0
   -1.1453   -2.7388    4.5769 O   0  0  0  0  0  0  0  0  0  0  0  0
   -2.6804    0.2765   -0.6482 N   0  0  0  0  0  0  0  0  0  0  0  0
   -3.1322    0.3052   -1.9510 C   0  0  0  0  0  0  0  0  0  0  0  0
   -4.4396    0.3637   -2.4490 C   0  0  0  0  0  0  0  0  0  0  0  0
   -4.6043    0.3727   -3.8374 C   0  0  0  0  0  0  0  0  0  0  0  0
   -3.5049    0.3238   -4.6919 C   0  0  0  0  0  0  0  0  0  0  0  0
   -2.2036    0.2645   -4.1793 C   0  0  0  0  0  0  0  0  0  0  0  0
   -2.0111    0.2562   -2.7845 C   0  0  0  0  0  0  0  0  0  0  0  0
  1  2  1  0
  2  3  1  0
  3  4  1  0
  4  5  2  0
  4  6  1  0
  6  7  1  0
  7  8  1  0
  8  9  2  0
  7 10  1  0
 10 11  1  0
 11 12  2  0
 12 13  1  0
 13 14  1  0
 14 15  2  0
 15 16  1  0
 16 17  2  0
 17 18  1  0
 18 19  2  0
 17 20  1  0
 20 21  1  0
 21 22  1  0
 12 23  1  0
 23 24  1  0
 24 25  2  0
 25 26  1  0
 26 27  2  0
 27 28  1  0
 28 29  2  0
  8  2  1  0
 13  6  1  0
 29 11  1  0
 19 14  1  0
 22 16  1  0
 29 24  1  0
M  END
>  <CID>  (4) 
6

>  <Energy>  (4) 
92.04061457564326

$$$$

     RDKit          3D

 29 34  0  0  0  0  0  0  0  0999 V2000
    5.1281    0.6140   -0.5900 C   0  0  0  0  0  0  0  0  0  0  0  0
    3.6863    0.5765   -0.4451 N   0  0  0  0  0  0  0  0  0  0  0  0
    3.0049    1.8189   -0.1118 C   0  0  0  0  0  0  0  0  0  0  0  0
    1.6995    1.6201    0.6535 C   0  0  0  0  0  0  0  0  0  0  0  0
    1.2581    2.4962    1.3956 O   0  0  0  0  0  0  0  0  0  0  0  0
    0.9991    0.4703    0.3328 N   0  0  0  0  0  0  0  0  0  0  0  0
    1.4487   -0.4226   -0.7647 C   0  0  0  0  0  0  0  0  0  0  0  0
    2.9658   -0.4802   -0.9792 C   0  0  0  0  0  0  0  0  0  0  0  0
    3.4840   -1.3782   -1.6417 O   0  0  0  0  0  0  0  0  0  0  0  0
    0.7164   -0.0958   -2.0816 C   0  0  0  0  0  0  0  0  0  0  0  0
   -0.7451    0.0558   -1.7952 C   0  0  0  0  0  0  0  0  0  0  0  0
   -1.2166    0.2540   -0.5071 C   0  0  0  0  0  0  0  0  0  0  0  0
   -0.4022    0.3461    0.7592 C   0  0  0  0  0  0  0  0  0  0  0  0
   -0.5744   -0.8071    1.7388 C   0  0  0  0  0  0  0  0  0  0  0  0
   -1.0302   -2.0809    1.3511 C   0  0  0  0  0  0  0  0  0  0  0  0
   -1.1286   -3.0637    2.3148 C   0  0  0  0  0  0  0  0  0  0  0  0
   -0.7899   -2.8341    3.6265 C   0  0  0  0  0  0  0  0  0  0  0  0
   -0.3309   -1.6080    4.0509 C   0  0  0  0  0  0  0  0  0  0  0  0
   -0.2191   -0.5918    3.0963 C   0  0  0  0  0  0  0  0  0  0  0  0
   -0.9586   -3.9342    4.4071 O   0  0  0  0  0  0  0  0  0  0  0  0
   -1.4300   -4.8880    3.4327 C   0  0  0  0  0  0  0  0  0  0  0  0
   -1.5533   -4.3386    2.1047 O   0  0  0  0  0  0  0  0  0  0  0  0
   -2.5786    0.3759   -0.5706 N   0  0  0  0  0  0  0  0  0  0  0  0
   -2.9997    0.2422   -1.8769 C   0  0  0  0  0  0  0  0  0  0  0  0
   -4.2924    0.2858   -2.4126 C   0  0  0  0  0  0  0  0  0  0  0  0
   -4.4279    0.1211   -3.7943 C   0  0  0  0  0  0  0  0  0  0  0  0
   -3.3143   -0.0788   -4.6068 C   0  0  0  0  0  0  0  0  0  0  0  0
   -2.0279   -0.1201   -4.0573 C   0  0  0  0  0  0  0  0  0  0  0  0
   -1.8648    0.0419   -2.6680 C   0  0  0  0  0  0  0  0  0  0  0  0
  1  2  1  0
  2  3  1  0
  3  4  1  0
  4  5  2  0
  4  6  1  0
  6  7  1  0
  7  8  1  0
  8  9  2  0
  7 10  1  0
 10 11  1  0
 11 12  2  0
 12 13  1  0
 13 14  1  0
 14 15  2  0
 15 16  1  0
 16 17  2  0
 17 18  1  0
 18 19  2  0
 17 20  1  0
 20 21  1  0
 21 22  1  0
 12 23  1  0
 23 24  1  0
 24 25  2  0
 25 26  1  0
 26 27  2  0
 27 28  1  0
 28 29  2  0
  8  2  1  0
 13  6  1  0
 29 11  1  0
 19 14  1  0
 22 16  1  0
 29 24  1  0
M  END
>  <CID>  (5) 
4

>  <Energy>  (5) 
93.32378769004059

$$$$

     RDKit          3D

 29 34  0  0  0  0  0  0  0  0999 V2000
    4.9938    1.5634   -0.6209 C   0  0  0  0  0  0  0  0  0  0  0  0
    3.7284    0.8785   -0.4406 N   0  0  0  0  0  0  0  0  0  0  0  0
    3.7051   -0.2871    0.4226 C   0  0  0  0  0  0  0  0  0  0  0  0
    2.6635   -1.3118   -0.0041 C   0  0  0  0  0  0  0  0  0  0  0  0
    2.8479   -2.5145    0.1806 O   0  0  0  0  0  0  0  0  0  0  0  0
    1.4566   -0.7806   -0.4484 N   0  0  0  0  0  0  0  0  0  0  0  0
    1.2493    0.6965   -0.5145 C   0  0  0  0  0  0  0  0  0  0  0  0
    2.5413    1.5122   -0.7658 C   0  0  0  0  0  0  0  0  0  0  0  0
    2.5075    2.6814   -1.1504 O   0  0  0  0  0  0  0  0  0  0  0  0
    0.2662    1.1389   -1.6357 C   0  0  0  0  0  0  0  0  0  0  0  0
   -0.8331    0.1656   -1.8391 C   0  0  0  0  0  0  0  0  0  0  0  0
   -0.7764   -1.1077   -1.3220 C   0  0  0  0  0  0  0  0  0  0  0  0
    0.2960   -1.6908   -0.4631 C   0  0  0  0  0  0  0  0  0  0  0  0
   -0.2065   -1.9851    0.9548 C   0  0  0  0  0  0  0  0  0  0  0  0
   -0.9660   -1.0483    1.6832 C   0  0  0  0  0  0  0  0  0  0  0  0
   -1.3729   -1.3802    2.9588 C   0  0  0  0  0  0  0  0  0  0  0  0
   -1.0566   -2.5882    3.5310 C   0  0  0  0  0  0  0  0  0  0  0  0
   -0.3131   -3.5326    2.8609 C   0  0  0  0  0  0  0  0  0  0  0  0
    0.1140   -3.2246    1.5647 C   0  0  0  0  0  0  0  0  0  0  0  0
   -1.5534   -2.7128    4.7903 O   0  0  0  0  0  0  0  0  0  0  0  0
   -2.2232   -1.4443    4.9439 C   0  0  0  0  0  0  0  0  0  0  0  0
   -2.1088   -0.5908    3.7863 O   0  0  0  0  0  0  0  0  0  0  0  0
   -1.9144   -1.7698   -1.7007 N   0  0  0  0  0  0  0  0  0  0  0  0
   -2.7124   -0.9363   -2.4541 C   0  0  0  0  0  0  0  0  0  0  0  0
   -3.9590   -1.1745   -3.0449 C   0  0  0  0  0  0  0  0  0  0  0  0
   -4.5432   -0.1301   -3.7679 C   0  0  0  0  0  0  0  0  0  0  0  0
   -3.9047    1.1017   -3.8942 C   0  0  0  0  0  0  0  0  0  0  0  0
   -2.6591    1.3249   -3.2963 C   0  0  0  0  0  0  0  0  0  0  0  0
   -2.0512    0.2897   -2.5600 C   0  0  0  0  0  0  0  0  0  0  0  0
  1  2  1  0
  2  3  1  0
  3  4  1  0
  4  5  2  0
  4  6  1  0
  6  7  1  0
  7  8  1  0
  8  9  2  0
  7 10  1  0
 10 11  1  0
 11 12  2  0
 12 13  1  0
 13 14  1  0
 14 15  2  0
 15 16  1  0
 16 17  2  0
 17 18  1  0
 18 19  2  0
 17 20  1  0
 20 21  1  0
 21 22  1  0
 12 23  1  0
 23 24  1  0
 24 25  2  0
 25 26  1  0
 26 27  2  0
 27 28  1  0
 28 29  2  0
  8  2  1  0
 13  6  1  0
 29 11  1  0
 19 14  1  0
 22 16  1  0
 29 24  1  0
M  END
>  <CID>  (6) 
3

>  <Energy>  (6) 
93.40155714177766

$$$$

     RDKit          3D

 29 34  0  0  0  0  0  0  0  0999 V2000
    5.0862    1.0962   -0.5848 C   0  0  0  0  0  0  0  0  0  0  0  0
    3.7101    0.6418   -0.5862 N   0  0  0  0  0  0  0  0  0  0  0  0
    2.7937    1.2350    0.3754 C   0  0  0  0  0  0  0  0  0  0  0  0
    1.6109    0.3438    0.7685 C   0  0  0  0  0  0  0  0  0  0  0  0
    1.0012    0.5827    1.8073 O   0  0  0  0  0  0  0  0  0  0  0  0
    1.2497   -0.6143   -0.1763 N   0  0  0  0  0  0  0  0  0  0  0  0
    1.7281   -0.4272   -1.5719 C   0  0  0  0  0  0  0  0  0  0  0  0
    3.1949   -0.0089   -1.6943 C   0  0  0  0  0  0  0  0  0  0  0  0
    3.8262   -0.1730   -2.7363 O   0  0  0  0  0  0  0  0  0  0  0  0
    0.7977    0.5409   -2.3416 C   0  0  0  0  0  0  0  0  0  0  0  0
   -0.6325    0.1906   -2.0476 C   0  0  0  0  0  0  0  0  0  0  0  0
   -0.9789   -0.6636   -1.0093 C   0  0  0  0  0  0  0  0  0  0  0  0
   -0.0113   -1.3778   -0.0928 C   0  0  0  0  0  0  0  0  0  0  0  0
   -0.5142   -1.7890    1.2801 C   0  0  0  0  0  0  0  0  0  0  0  0
   -0.0691   -3.0074    1.8304 C   0  0  0  0  0  0  0  0  0  0  0  0
   -0.5410   -3.3833    3.0711 C   0  0  0  0  0  0  0  0  0  0  0  0
   -1.4202   -2.6023    3.7808 C   0  0  0  0  0  0  0  0  0  0  0  0
   -1.8711   -1.3973    3.2932 C   0  0  0  0  0  0  0  0  0  0  0  0
   -1.4091   -0.9899    2.0365 C   0  0  0  0  0  0  0  0  0  0  0  0
   -1.7580   -3.1547    4.9762 O   0  0  0  0  0  0  0  0  0  0  0  0
   -0.9727   -4.3641    4.9464 C   0  0  0  0  0  0  0  0  0  0  0  0
   -0.2145   -4.5277    3.7296 O   0  0  0  0  0  0  0  0  0  0  0  0
   -2.3389   -0.8191   -1.0316 N   0  0  0  0  0  0  0  0  0  0  0  0
   -2.8843   -0.0413   -2.0307 C   0  0  0  0  0  0  0  0  0  0  0  0
   -4.2226    0.1329   -2.4033 C   0  0  0  0  0  0  0  0  0  0  0  0
   -4.4915    0.9882   -3.4760 C   0  0  0  0  0  0  0  0  0  0  0  0
   -3.4618    1.6409   -4.1499 C   0  0  0  0  0  0  0  0  0  0  0  0
   -2.1282    1.4563   -3.7671 C   0  0  0  0  0  0  0  0  0  0  0  0
   -1.8316    0.6026   -2.6870 C   0  0  0  0  0  0  0  0  0  0  0  0
  1  2  1  0
  2  3  1  0
  3  4  1  0
  4  5  2  0
  4  6  1  0
  6  7  1  0
  7  8  1  0
  8  9  2  0
  7 10  1  0
 10 11  1  0
 11 12  2  0
 12 13  1  0
 13 14  1  0
 14 15  2  0
 15 16  1  0
 16 17  2  0
 17 18  1  0
 18 19  2  0
 17 20  1  0
 20 21  1  0
 21 22  1  0
 12 23  1  0
 23 24  1  0
 24 25  2  0
 25 26  1  0
 26 27  2  0
 27 28  1  0
 28 29  2  0
  8  2  1  0
 13  6  1  0
 29 11  1  0
 19 14  1  0
 22 16  1  0
 29 24  1  0
M  END
>  <CID>  (7) 
5

>  <Energy>  (7) 
105.05880360172935

$$$$

     RDKit          3D

 29 34  0  0  0  0  0  0  0  0999 V2000
    5.1583    1.0105   -0.7894 C   0  0  0  0  0  0  0  0  0  0  0  0
    3.7408    0.7550   -0.6288 N   0  0  0  0  0  0  0  0  0  0  0  0
    3.2937   -0.6294   -0.6116 C   0  0  0  0  0  0  0  0  0  0  0  0
    1.9938   -0.8719    0.1619 C   0  0  0  0  0  0  0  0  0  0  0  0
    1.7316   -2.0062    0.5523 O   0  0  0  0  0  0  0  0  0  0  0  0
    1.1441    0.2285    0.2548 N   0  0  0  0  0  0  0  0  0  0  0  0
    1.3575    1.3541   -0.6931 C   0  0  0  0  0  0  0  0  0  0  0  0
    2.8209    1.7570   -0.8868 C   0  0  0  0  0  0  0  0  0  0  0  0
    3.1314    2.8651   -1.3191 O   0  0  0  0  0  0  0  0  0  0  0  0
    0.6668    1.0656   -2.0474 C   0  0  0  0  0  0  0  0  0  0  0  0
   -0.7046    0.5097   -1.7943 C   0  0  0  0  0  0  0  0  0  0  0  0
   -1.0939    0.0622   -0.5387 C   0  0  0  0  0  0  0  0  0  0  0  0
   -0.2534    0.1144    0.7174 C   0  0  0  0  0  0  0  0  0  0  0  0
   -0.5631   -0.8831    1.8203 C   0  0  0  0  0  0  0  0  0  0  0  0
   -0.9888   -2.1991    1.5548 C   0  0  0  0  0  0  0  0  0  0  0  0
   -1.2606   -3.0331    2.6196 C   0  0  0  0  0  0  0  0  0  0  0  0
   -1.1157   -2.6187    3.9211 C   0  0  0  0  0  0  0  0  0  0  0  0
   -0.6871   -1.3485    4.2321 C   0  0  0  0  0  0  0  0  0  0  0  0
   -0.4054   -0.4796    3.1721 C   0  0  0  0  0  0  0  0  0  0  0  0
   -1.4320   -3.5928    4.8154 O   0  0  0  0  0  0  0  0  0  0  0  0
   -1.7575   -4.6803    3.9248 C   0  0  0  0  0  0  0  0  0  0  0  0
   -1.6881   -4.3212    2.5298 O   0  0  0  0  0  0  0  0  0  0  0  0
   -2.4008   -0.3367   -0.6245 N   0  0  0  0  0  0  0  0  0  0  0  0
   -2.8491   -0.2029   -1.9215 C   0  0  0  0  0  0  0  0  0  0  0  0
   -4.0985   -0.5074   -2.4752 C   0  0  0  0  0  0  0  0  0  0  0  0
   -4.2818   -0.2591   -3.8388 C   0  0  0  0  0  0  0  0  0  0  0  0
   -3.2563    0.2745   -4.6159 C   0  0  0  0  0  0  0  0  0  0  0  0
   -2.0125    0.5747   -4.0484 C   0  0  0  0  0  0  0  0  0  0  0  0
   -1.8017    0.3301   -2.6776 C   0  0  0  0  0  0  0  0  0  0  0  0
  1  2  1  0
  2  3  1  0
  3  4  1  0
  4  5  2  0
  4  6  1  0
  6  7  1  0
  7  8  1  0
  8  9  2  0
  7 10  1  0
 10 11  1  0
 11 12  2  0
 12 13  1  0
 13 14  1  0
 14 15  2  0
 15 16  1  0
 16 17  2  0
 17 18  1  0
 18 19  2  0
 17 20  1  0
 20 21  1  0
 21 22  1  0
 12 23  1  0
 23 24  1  0
 24 25  2  0
 25 26  1  0
 26 27  2  0
 27 28  1  0
 28 29  2  0
  8  2  1  0
 13  6  1  0
 29 11  1  0
 19 14  1  0
 22 16  1  0
 29 24  1  0
M  END
>  <CID>  (8) 
1

>  <Energy>  (8) 
105.2955031669513

$$$$

     RDKit          3D

 29 34  0  0  0  0  0  0  0  0999 V2000
    4.8725    1.8586   -0.3405 C   0  0  0  0  0  0  0  0  0  0  0  0
    3.6028    1.1639   -0.4145 N   0  0  0  0  0  0  0  0  0  0  0  0
    2.5698    1.5244    0.5446 C   0  0  0  0  0  0  0  0  0  0  0  0
    1.5638    0.4101    0.8500 C   0  0  0  0  0  0  0  0  0  0  0  0
    0.9024    0.4666    1.8830 O   0  0  0  0  0  0  0  0  0  0  0  0
    1.4016   -0.5363   -0.1597 N   0  0  0  0  0  0  0  0  0  0  0  0
    1.8732   -0.1845   -1.5252 C   0  0  0  0  0  0  0  0  0  0  0  0
    3.2435    0.4950   -1.5722 C   0  0  0  0  0  0  0  0  0  0  0  0
    3.9220    0.5050   -2.5972 O   0  0  0  0  0  0  0  0  0  0  0  0
    0.8045    0.6465   -2.2746 C   0  0  0  0  0  0  0  0  0  0  0  0
   -0.5463    0.0305   -2.0517 C   0  0  0  0  0  0  0  0  0  0  0  0
   -0.7613   -0.9300   -1.0723 C   0  0  0  0  0  0  0  0  0  0  0  0
    0.2945   -1.5134   -0.1603 C   0  0  0  0  0  0  0  0  0  0  0  0
   -0.1565   -2.0847    1.1730 C   0  0  0  0  0  0  0  0  0  0  0  0
   -1.2121   -1.5260    1.9193 C   0  0  0  0  0  0  0  0  0  0  0  0
   -1.5629   -2.1195    3.1142 C   0  0  0  0  0  0  0  0  0  0  0  0
   -0.9055   -3.2252    3.5956 C   0  0  0  0  0  0  0  0  0  0  0  0
    0.1425   -3.7981    2.9119 C   0  0  0  0  0  0  0  0  0  0  0  0
    0.5195   -3.2184    1.6955 C   0  0  0  0  0  0  0  0  0  0  0  0
   -1.4050   -3.6497    4.7869 O   0  0  0  0  0  0  0  0  0  0  0  0
   -2.4294   -2.6600    5.0170 C   0  0  0  0  0  0  0  0  0  0  0  0
   -2.5612   -1.7084    3.9415 O   0  0  0  0  0  0  0  0  0  0  0  0
   -2.0709   -1.3215   -1.1520 N   0  0  0  0  0  0  0  0  0  0  0  0
   -2.7194   -0.5977   -2.1300 C   0  0  0  0  0  0  0  0  0  0  0  0
   -4.0568   -0.6425   -2.5416 C   0  0  0  0  0  0  0  0  0  0  0  0
   -4.4455    0.2109   -3.5786 C   0  0  0  0  0  0  0  0  0  0  0  0
   -3.5314    1.0727   -4.1804 C   0  0  0  0  0  0  0  0  0  0  0  0
   -2.1972    1.1061   -3.7588 C   0  0  0  0  0  0  0  0  0  0  0  0
   -1.7818    0.2587   -2.7134 C   0  0  0  0  0  0  0  0  0  0  0  0
  1  2  1  0
  2  3  1  0
  3  4  1  0
  4  5  2  0
  4  6  1  0
  6  7  1  0
  7  8  1  0
  8  9  2  0
  7 10  1  0
 10 11  1  0
 11 12  2  0
 12 13  1  0
 13 14  1  0
 14 15  2  0
 15 16  1  0
 16 17  2  0
 17 18  1  0
 18 19  2  0
 17 20  1  0
 20 21  1  0
 21 22  1  0
 12 23  1  0
 23 24  1  0
 24 25  2  0
 25 26  1  0
 26 27  2  0
 27 28  1  0
 28 29  2  0
  8  2  1  0
 13  6  1  0
 29 11  1  0
 19 14  1  0
 22 16  1  0
 29 24  1  0
M  END
>  <CID>  (9) 
8

>  <Energy>  (9) 
105.29550323282618

$$$$

     RDKit          3D

 29 34  0  0  0  0  0  0  0  0999 V2000
    5.1581    1.0111   -0.7902 C   0  0  0  0  0  0  0  0  0  0  0  0
    3.7406    0.7554   -0.6302 N   0  0  0  0  0  0  0  0  0  0  0  0
    3.2945   -0.6293   -0.6060 C   0  0  0  0  0  0  0  0  0  0  0  0
    1.9937   -0.8686    0.1669 C   0  0  0  0  0  0  0  0  0  0  0  0
    1.7318   -2.0010    0.5631 O   0  0  0  0  0  0  0  0  0  0  0  0
    1.1430    0.2316    0.2525 N   0  0  0  0  0  0  0  0  0  0  0  0
    1.3568    1.3522   -0.7012 C   0  0  0  0  0  0  0  0  0  0  0  0
    2.8202    1.7552   -0.8949 C   0  0  0  0  0  0  0  0  0  0  0  0
    3.1305    2.8612   -1.3327 O   0  0  0  0  0  0  0  0  0  0  0  0
    0.6684    1.0558   -2.0549 C   0  0  0  0  0  0  0  0  0  0  0  0
   -0.7030    0.5002   -1.8007 C   0  0  0  0  0  0  0  0  0  0  0  0
   -1.0937    0.0593   -0.5433 C   0  0  0  0  0  0  0  0  0  0  0  0
   -0.2552    0.1190    0.7138 C   0  0  0  0  0  0  0  0  0  0  0  0
   -0.5656   -0.8728    1.8216 C   0  0  0  0  0  0  0  0  0  0  0  0
   -0.9900   -2.1906    1.5627 C   0  0  0  0  0  0  0  0  0  0  0  0
   -1.2626   -3.0189    2.6316 C   0  0  0  0  0  0  0  0  0  0  0  0
   -1.1200   -2.5973    3.9310 C   0  0  0  0  0  0  0  0  0  0  0  0
   -0.6927   -1.3252    4.2357 C   0  0  0  0  0  0  0  0  0  0  0  0
   -0.4103   -0.4618    3.1714 C   0  0  0  0  0  0  0  0  0  0  0  0
   -1.4368   -3.5668    4.8302 O   0  0  0  0  0  0  0  0  0  0  0  0
   -1.7603   -4.6594    3.9450 C   0  0  0  0  0  0  0  0  0  0  0  0
   -1.6891   -4.3078    2.5482 O   0  0  0  0  0  0  0  0  0  0  0  0
   -2.4002   -0.3412   -0.6289 N   0  0  0  0  0  0  0  0  0  0  0  0
   -2.8468   -0.2148   -1.9272 C   0  0  0  0  0  0  0  0  0  0  0  0
   -4.0950   -0.5233   -2.4810 C   0  0  0  0  0  0  0  0  0  0  0  0
   -4.2766   -0.2824   -3.8462 C   0  0  0  0  0  0  0  0  0  0  0  0
   -3.2503    0.2478   -4.6247 C   0  0  0  0  0  0  0  0  0  0  0  0
   -2.0077    0.5520   -4.0571 C   0  0  0  0  0  0  0  0  0  0  0  0
   -1.7987    0.3150   -2.6847 C   0  0  0  0  0  0  0  0  0  0  0  0
  1  2  1  0
  2  3  1  0
  3  4  1  0
  4  5  2  0
  4  6  1  0
  6  7  1  0
  7  8  1  0
  8  9  2  0
  7 10  1  0
 10 11  1  0
 11 12  2  0
 12 13  1  0
 13 14  1  0
 14 15  2  0
 15 16  1  0
 16 17  2  0
 17 18  1  0
 18 19  2  0
 17 20  1  0
 20 21  1  0
 21 22  1  0
 12 23  1  0
 23 24  1  0
 24 25  2  0
 25 26  1  0
 26 27  2  0
 27 28  1  0
 28 29  2  0
  8  2  1  0
 13  6  1  0
 29 11  1  0
 19 14  1  0
 22 16  1  0
 29 24  1  0
M  END
>  <CID>  (10) 
0

>  <Energy>  (10) 
105.29550329761206

$$$$

     RDKit          3D

 29 34  0  0  0  0  0  0  0  0999 V2000
    5.0526    0.3683   -1.0444 C   0  0  0  0  0  0  0  0  0  0  0  0
    3.6244    0.3135   -0.8056 N   0  0  0  0  0  0  0  0  0  0  0  0
    2.9213   -0.9162   -1.1452 C   0  0  0  0  0  0  0  0  0  0  0  0
    1.6341   -1.1557   -0.3509 C   0  0  0  0  0  0  0  0  0  0  0  0
    1.1220   -2.2732   -0.3293 O   0  0  0  0  0  0  0  0  0  0  0  0
    1.0612   -0.0096    0.2104 N   0  0  0  0  0  0  0  0  0  0  0  0
    1.4000    1.2919   -0.4252 C   0  0  0  0  0  0  0  0  0  0  0  0
    2.9002    1.4868   -0.6597 C   0  0  0  0  0  0  0  0  0  0  0  0
    3.3904    2.6061   -0.7940 O   0  0  0  0  0  0  0  0  0  0  0  0
    0.5901    1.5109   -1.7340 C   0  0  0  0  0  0  0  0  0  0  0  0
   -0.7464    0.8199   -1.6602 C   0  0  0  0  0  0  0  0  0  0  0  0
   -1.1345    0.0740   -0.5519 C   0  0  0  0  0  0  0  0  0  0  0  0
   -0.3207   -0.0430    0.7168 C   0  0  0  0  0  0  0  0  0  0  0  0
   -0.7323   -1.0441    1.7885 C   0  0  0  0  0  0  0  0  0  0  0  0
    0.1882   -1.8817    2.4441 C   0  0  0  0  0  0  0  0  0  0  0  0
   -0.2597   -2.7116    3.4537 C   0  0  0  0  0  0  0  0  0  0  0  0
   -1.5702   -2.7200    3.8604 C   0  0  0  0  0  0  0  0  0  0  0  0
   -2.5032   -1.8865    3.2922 C   0  0  0  0  0  0  0  0  0  0  0  0
   -2.0738   -1.0361    2.2662 C   0  0  0  0  0  0  0  0  0  0  0  0
   -1.7977   -3.6005    4.8703 O   0  0  0  0  0  0  0  0  0  0  0  0
   -0.4787   -4.1600    5.0415 C   0  0  0  0  0  0  0  0  0  0  0  0
    0.5085   -3.5816    4.1638 O   0  0  0  0  0  0  0  0  0  0  0  0
   -2.2935   -0.5749   -0.8748 N   0  0  0  0  0  0  0  0  0  0  0  0
   -2.7299   -0.1677   -2.1184 C   0  0  0  0  0  0  0  0  0  0  0  0
   -3.8810   -0.5294   -2.8285 C   0  0  0  0  0  0  0  0  0  0  0  0
   -4.0572    0.0198   -4.1021 C   0  0  0  0  0  0  0  0  0  0  0  0
   -3.1139    0.8883   -4.6465 C   0  0  0  0  0  0  0  0  0  0  0  0
   -1.9637    1.2347   -3.9281 C   0  0  0  0  0  0  0  0  0  0  0  0
   -1.7704    0.7055   -2.6374 C   0  0  0  0  0  0  0  0  0  0  0  0
  1  2  1  0
  2  3  1  0
  3  4  1  0
  4  5  2  0
  4  6  1  0
  6  7  1  0
  7  8  1  0
  8  9  2  0
  7 10  1  0
 10 11  1  0
 11 12  2  0
 12 13  1  0
 13 14  1  0
 14 15  2  0
 15 16  1  0
 16 17  2  0
 17 18  1  0
 18 19  2  0
 17 20  1  0
 20 21  1  0
 21 22  1  0
 12 23  1  0
 23 24  1  0
 24 25  2  0
 25 26  1  0
 26 27  2  0
 27 28  1  0
 28 29  2  0
  8  2  1  0
 13  6  1  0
 29 11  1  0
 19 14  1  0
 22 16  1  0
 29 24  1  0
M  END
>  <CID>  (11) 
9

>  <Energy>  (11) 
110.80493672626837

$$$$
