
     RDKit          3D

 34 37  0  0  0  0  0  0  0  0999 V2000
   -3.7555    4.4387   -3.7411 C   0  0  0  0  0  0  0  0  0  0  0  0
   -4.4442    3.3203   -2.9831 C   0  0  0  0  0  0  0  0  0  0  0  0
   -3.4330    2.5306   -2.2008 C   0  0  0  0  0  0  0  0  0  0  0  0
   -4.1767    1.4416   -1.4743 C   0  0  0  0  0  0  0  0  0  0  0  0
   -5.4822    1.1732   -1.4819 N   0  0  0  0  0  0  0  0  0  0  0  0
   -5.7147    0.1158   -0.6943 C   0  0  0  0  0  0  0  0  0  0  0  0
   -4.4903   -0.2654   -0.1925 C   0  0  0  0  0  0  0  0  0  0  0  0
   -3.5507    0.5472   -0.6710 N   0  0  0  0  0  0  0  0  0  0  0  0
   -2.2722    0.3850   -0.3310 N   0  0  0  0  0  0  0  0  0  0  0  0
   -1.8734   -0.5929    0.5000 C   0  0  0  0  0  0  0  0  0  0  0  0
   -2.7996   -1.4257    0.9966 N   0  0  0  0  0  0  0  0  0  0  0  0
   -4.0857   -1.2758    0.6649 C   0  0  0  0  0  0  0  0  0  0  0  0
   -5.0084   -2.0265    1.0979 O   0  0  0  0  0  0  0  0  0  0  0  0
   -0.4489   -0.7498    0.8615 C   0  0  0  0  0  0  0  0  0  0  0  0
   -0.1047   -1.7716    1.7182 C   0  0  0  0  0  0  0  0  0  0  0  0
    1.2328   -1.9068    2.0500 C   0  0  0  0  0  0  0  0  0  0  0  0
    2.1675   -1.0343    1.5262 C   0  0  0  0  0  0  0  0  0  0  0  0
    1.8259   -0.0075    0.6660 C   0  0  0  0  0  0  0  0  0  0  0  0
    0.4887    0.1220    0.3388 C   0  0  0  0  0  0  0  0  0  0  0  0
    3.0295    1.0984    0.0077 S   0  0  0  0  0  0  0  0  0  0  0  0
    2.2981    2.3818   -0.2891 O   0  0  0  0  0  0  0  0  0  0  0  0
    4.1450    1.3409    0.9701 O   0  0  0  0  0  0  0  0  0  0  0  0
    3.5947    0.3742   -1.4737 N   0  0  0  0  0  0  0  0  0  0  0  0
    4.2052   -0.9117   -1.1128 C   0  0  0  0  0  0  0  0  0  0  0  0
    5.3481   -0.5766   -0.1764 C   0  0  0  0  0  0  0  0  0  0  0  0
    6.3868    0.1434   -0.8740 N   0  0  0  0  0  0  0  0  0  0  0  0
    5.9512    0.7542   -2.0873 C   0  0  0  0  0  0  0  0  0  0  0  0
    4.5437    1.2587   -2.0671 C   0  0  0  0  0  0  0  0  0  0  0  0
    7.2081    0.9586   -0.0387 C   0  0  0  0  0  0  0  0  0  0  0  0
    8.0394    0.0570    0.8581 C   0  0  0  0  0  0  0  0  0  0  0  0
   -1.0943   -2.6138    2.2092 O   0  0  0  0  0  0  0  0  0  0  0  0
   -0.6766   -3.6489    3.0888 C   0  0  0  0  0  0  0  0  0  0  0  0
   -0.0088   -3.1068    4.3258 C   0  0  0  0  0  0  0  0  0  0  0  0
   -7.0448   -0.5274   -0.4131 C   0  0  0  0  0  0  0  0  0  0  0  0
  1  2  1  0
  2  3  1  0
  3  4  1  0
  4  5  2  0
  5  6  1  0
  6  7  2  0
  7  8  1  0
  8  9  1  0
  9 10  2  0
 10 11  1  0
 11 12  1  0
 12 13  2  0
 10 14  1  0
 14 15  2  0
 15 16  1  0
 16 17  2  0
 17 18  1  0
 18 19  2  0
 18 20  1  0
 20 21  2  0
 20 22  2  0
 20 23  1  0
 23 24  1  0
 24 25  1  0
 25 26  1  0
 26 27  1  0
 27 28  1  0
 26 29  1  0
 29 30  1  0
 15 31  1  0
 31 32  1  0
 32 33  1  0
  6 34  1  0
  8  4  1  0
 12  7  1  0
 19 14  1  0
 28 23  1  0
M  END
>  <CID>  (1) 
-1

>  <Energy>  (1) 


$$$$

     RDKit          3D

 34 37  0  0  0  0  0  0  0  0999 V2000
    3.5065   -4.1763   -0.7124 C   0  0  0  0  0  0  0  0  0  0  0  0
    3.7058   -4.3971    0.7835 C   0  0  0  0  0  0  0  0  0  0  0  0
    3.0802   -3.2922    1.6424 C   0  0  0  0  0  0  0  0  0  0  0  0
    3.7730   -1.9768    1.5036 C   0  0  0  0  0  0  0  0  0  0  0  0
    5.0746   -1.7818    1.3697 N   0  0  0  0  0  0  0  0  0  0  0  0
    5.2456   -0.4175    1.3038 C   0  0  0  0  0  0  0  0  0  0  0  0
    4.0272    0.2132    1.4089 C   0  0  0  0  0  0  0  0  0  0  0  0
    3.0971   -0.7754    1.5356 N   0  0  0  0  0  0  0  0  0  0  0  0
    1.7583   -0.5819    1.6687 N   0  0  0  0  0  0  0  0  0  0  0  0
    1.3784    0.6628    1.6764 C   0  0  0  0  0  0  0  0  0  0  0  0
    2.2644    1.7133    1.5537 N   0  0  0  0  0  0  0  0  0  0  0  0
    3.6213    1.5718    1.4113 C   0  0  0  0  0  0  0  0  0  0  0  0
    4.3625    2.5425    1.3019 O   0  0  0  0  0  0  0  0  0  0  0  0
   -0.0820    1.0026    1.8182 C   0  0  0  0  0  0  0  0  0  0  0  0
   -0.6045    2.3163    1.7678 C   0  0  0  0  0  0  0  0  0  0  0  0
   -1.9891    2.5117    1.8957 C   0  0  0  0  0  0  0  0  0  0  0  0
   -2.8538    1.4280    2.0692 C   0  0  0  0  0  0  0  0  0  0  0  0
   -2.3375    0.1352    2.1073 C   0  0  0  0  0  0  0  0  0  0  0  0
   -0.9615   -0.0790    2.0077 C   0  0  0  0  0  0  0  0  0  0  0  0
   -3.4274   -1.2508    2.3644 S   0  0  0  0  0  6  0  0  0  0  0  0
   -4.6627   -0.7282    2.9104 O   0  0  0  0  0  0  0  0  0  0  0  0
   -2.6718   -2.2656    3.0674 O   0  0  0  0  0  0  0  0  0  0  0  0
   -3.7406   -1.8055    0.7968 N   0  0  0  0  0  0  0  0  0  0  0  0
   -4.5446   -0.9200   -0.0873 C   0  0  0  0  0  0  0  0  0  0  0  0
   -5.0367   -1.7100   -1.3170 C   0  0  0  0  0  0  0  0  0  0  0  0
   -3.9239   -2.3189   -2.0848 N   0  0  0  0  0  0  0  0  0  0  0  0
   -3.1385   -3.1908   -1.1792 C   0  0  0  0  0  0  0  0  0  0  0  0
   -2.6115   -2.4333    0.0578 C   0  0  0  0  0  0  0  0  0  0  0  0
   -4.4618   -3.0659   -3.2339 C   0  0  0  0  0  0  0  0  0  0  0  0
   -3.3804   -3.5029   -4.2168 C   0  0  0  0  0  0  0  0  0  0  0  0
    0.2839    3.3472    1.5889 O   0  0  0  0  0  0  0  0  0  0  0  0
   -0.2052    4.6877    1.6793 C   0  0  0  0  0  0  0  0  0  0  0  0
    0.9831    5.6231    1.5478 C   0  0  0  0  0  0  0  0  0  0  0  0
    6.5928    0.1742    1.1494 C   0  0  0  0  0  0  0  0  0  0  0  0
  1  2  1  0
  2  3  1  0
  3  4  1  0
  4  5  2  0
  5  6  1  0
  6  7  2  0
  7  8  1  0
  8  9  1  0
  9 10  2  0
 10 11  1  0
 11 12  1  0
 12 13  2  0
 10 14  1  0
 14 15  2  0
 15 16  1  0
 16 17  2  0
 17 18  1  0
 18 19  2  0
 18 20  1  0
 20 21  2  0
 20 22  2  0
 20 23  1  0
 23 24  1  0
 24 25  1  0
 25 26  1  0
 26 27  1  0
 27 28  1  0
 26 29  1  0
 29 30  1  0
 15 31  1  0
 31 32  1  0
 32 33  1  0
  6 34  1  0
  8  4  1  0
 12  7  1  0
 19 14  1  0
 28 23  1  0
M  END
>  <CID>  (2) 
30

>  <Energy>  (2) 
-32.77923475625201

$$$$

     RDKit          3D

 34 37  0  0  0  0  0  0  0  0999 V2000
    2.3787   -3.5560    2.5522 C   0  0  0  0  0  0  0  0  0  0  0  0
    3.0927   -4.1017    1.3228 C   0  0  0  0  0  0  0  0  0  0  0  0
    2.9442   -3.2116    0.0881 C   0  0  0  0  0  0  0  0  0  0  0  0
    3.7053   -1.9341    0.2033 C   0  0  0  0  0  0  0  0  0  0  0  0
    4.9943   -1.7699   -0.0420 N   0  0  0  0  0  0  0  0  0  0  0  0
    5.2522   -0.4377    0.1954 C   0  0  0  0  0  0  0  0  0  0  0  0
    4.0970    0.2034    0.5825 C   0  0  0  0  0  0  0  0  0  0  0  0
    3.1198   -0.7466    0.5852 N   0  0  0  0  0  0  0  0  0  0  0  0
    1.8203   -0.5365    0.9176 N   0  0  0  0  0  0  0  0  0  0  0  0
    1.5288    0.6825    1.2657 C   0  0  0  0  0  0  0  0  0  0  0  0
    2.4647    1.6965    1.2816 N   0  0  0  0  0  0  0  0  0  0  0  0
    3.7849    1.5390    0.9435 C   0  0  0  0  0  0  0  0  0  0  0  0
    4.5721    2.4790    0.9650 O   0  0  0  0  0  0  0  0  0  0  0  0
    0.1218    1.0307    1.6737 C   0  0  0  0  0  0  0  0  0  0  0  0
   -0.3064    2.3294    2.0376 C   0  0  0  0  0  0  0  0  0  0  0  0
   -1.6485    2.5376    2.3972 C   0  0  0  0  0  0  0  0  0  0  0  0
   -2.5624    1.4809    2.4047 C   0  0  0  0  0  0  0  0  0  0  0  0
   -2.1348    0.2057    2.0486 C   0  0  0  0  0  0  0  0  0  0  0  0
   -0.8057   -0.0260    1.6895 C   0  0  0  0  0  0  0  0  0  0  0  0
   -3.2715   -1.1587    2.0475 S   0  0  0  0  0  6  0  0  0  0  0  0
   -2.6856   -2.1888    2.8773 O   0  0  0  0  0  0  0  0  0  0  0  0
   -4.5992   -0.6432    2.3075 O   0  0  0  0  0  0  0  0  0  0  0  0
   -3.2231   -1.6758    0.4246 N   0  0  0  0  0  0  0  0  0  0  0  0
   -3.7959   -0.7133   -0.5677 C   0  0  0  0  0  0  0  0  0  0  0  0
   -3.5498   -1.2258   -2.0002 C   0  0  0  0  0  0  0  0  0  0  0  0
   -4.1393   -2.5638   -2.2331 N   0  0  0  0  0  0  0  0  0  0  0  0
   -3.6067   -3.5091   -1.2251 C   0  0  0  0  0  0  0  0  0  0  0  0
   -3.8344   -3.0275    0.2233 C   0  0  0  0  0  0  0  0  0  0  0  0
   -3.8587   -3.0031   -3.6094 C   0  0  0  0  0  0  0  0  0  0  0  0
   -4.6233   -4.2628   -4.0010 C   0  0  0  0  0  0  0  0  0  0  0  0
    0.6274    3.3350    2.0132 O   0  0  0  0  0  0  0  0  0  0  0  0
    0.2415    4.6334    2.4704 C   0  0  0  0  0  0  0  0  0  0  0  0
    1.4696    5.5243    2.4168 C   0  0  0  0  0  0  0  0  0  0  0  0
    6.6141    0.1146    0.0230 C   0  0  0  0  0  0  0  0  0  0  0  0
  1  2  1  0
  2  3  1  0
  3  4  1  0
  4  5  2  0
  5  6  1  0
  6  7  2  0
  7  8  1  0
  8  9  1  0
  9 10  2  0
 10 11  1  0
 11 12  1  0
 12 13  2  0
 10 14  1  0
 14 15  2  0
 15 16  1  0
 16 17  2  0
 17 18  1  0
 18 19  2  0
 18 20  1  0
 20 21  2  0
 20 22  2  0
 20 23  1  0
 23 24  1  0
 24 25  1  0
 25 26  1  0
 26 27  1  0
 27 28  1  0
 26 29  1  0
 29 30  1  0
 15 31  1  0
 31 32  1  0
 32 33  1  0
  6 34  1  0
  8  4  1  0
 12  7  1  0
 19 14  1  0
 28 23  1  0
M  END
>  <CID>  (3) 
16

>  <Energy>  (3) 
-32.00904457304227

$$$$

     RDKit          3D

 34 37  0  0  0  0  0  0  0  0999 V2000
    1.5653   -3.5874    0.4090 C   0  0  0  0  0  0  0  0  0  0  0  0
    2.9424   -3.9447   -0.1340 C   0  0  0  0  0  0  0  0  0  0  0  0
    3.7066   -2.7433   -0.6930 C   0  0  0  0  0  0  0  0  0  0  0  0
    4.1711   -1.8081    0.3723 C   0  0  0  0  0  0  0  0  0  0  0  0
    5.2662   -1.9388    1.1018 N   0  0  0  0  0  0  0  0  0  0  0  0
    5.2924   -0.8429    1.9357 C   0  0  0  0  0  0  0  0  0  0  0  0
    4.1937   -0.0475    1.7013 C   0  0  0  0  0  0  0  0  0  0  0  0
    3.4862   -0.6619    0.7118 N   0  0  0  0  0  0  0  0  0  0  0  0
    2.3159   -0.2146    0.1885 N   0  0  0  0  0  0  0  0  0  0  0  0
    1.8717    0.8969    0.6978 C   0  0  0  0  0  0  0  0  0  0  0  0
    2.5393    1.5798    1.6937 N   0  0  0  0  0  0  0  0  0  0  0  0
    3.7210    1.1685    2.2573 C   0  0  0  0  0  0  0  0  0  0  0  0
    4.2691    1.8114    3.1461 O   0  0  0  0  0  0  0  0  0  0  0  0
    0.5720    1.4769    0.2065 C   0  0  0  0  0  0  0  0  0  0  0  0
   -0.0397    2.6357    0.7402 C   0  0  0  0  0  0  0  0  0  0  0  0
   -1.2758    3.0554    0.2242 C   0  0  0  0  0  0  0  0  0  0  0  0
   -1.9029    2.3500   -0.8067 C   0  0  0  0  0  0  0  0  0  0  0  0
   -1.2992    1.2080   -1.3261 C   0  0  0  0  0  0  0  0  0  0  0  0
   -0.0605    0.7852   -0.8434 C   0  0  0  0  0  0  0  0  0  0  0  0
   -2.0726    0.3183   -2.6614 S   0  0  0  0  0  6  0  0  0  0  0  0
   -3.0626    1.1998   -3.2445 O   0  0  0  0  0  0  0  0  0  0  0  0
   -1.0140   -0.2502   -3.4676 O   0  0  0  0  0  0  0  0  0  0  0  0
   -2.8887   -0.9423   -1.8814 N   0  0  0  0  0  0  0  0  0  0  0  0
   -4.0362   -0.5687   -1.0122 C   0  0  0  0  0  0  0  0  0  0  0  0
   -4.8720   -1.8190   -0.6742 C   0  0  0  0  0  0  0  0  0  0  0  0
   -4.0676   -2.8807   -0.0237 N   0  0  0  0  0  0  0  0  0  0  0  0
   -2.9344   -3.2329   -0.9115 C   0  0  0  0  0  0  0  0  0  0  0  0
   -2.0591   -2.0107   -1.2600 C   0  0  0  0  0  0  0  0  0  0  0  0
   -4.9210   -4.0446    0.2658 C   0  0  0  0  0  0  0  0  0  0  0  0
   -4.2347   -5.0765    1.1543 C   0  0  0  0  0  0  0  0  0  0  0  0
    0.6122    3.2814    1.7590 O   0  0  0  0  0  0  0  0  0  0  0  0
    0.1524    4.5589    2.2085 C   0  0  0  0  0  0  0  0  0  0  0  0
   -0.8302    4.3994    3.3551 C   0  0  0  0  0  0  0  0  0  0  0  0
    6.3926   -0.6516    2.9064 C   0  0  0  0  0  0  0  0  0  0  0  0
  1  2  1  0
  2  3  1  0
  3  4  1  0
  4  5  2  0
  5  6  1  0
  6  7  2  0
  7  8  1  0
  8  9  1  0
  9 10  2  0
 10 11  1  0
 11 12  1  0
 12 13  2  0
 10 14  1  0
 14 15  2  0
 15 16  1  0
 16 17  2  0
 17 18  1  0
 18 19  2  0
 18 20  1  0
 20 21  2  0
 20 22  2  0
 20 23  1  0
 23 24  1  0
 24 25  1  0
 25 26  1  0
 26 27  1  0
 27 28  1  0
 26 29  1  0
 29 30  1  0
 15 31  1  0
 31 32  1  0
 32 33  1  0
  6 34  1  0
  8  4  1  0
 12  7  1  0
 19 14  1  0
 28 23  1  0
M  END
>  <CID>  (4) 
181

>  <Energy>  (4) 
-31.52299481049203

$$$$

     RDKit          3D

 34 37  0  0  0  0  0  0  0  0999 V2000
    2.7928   -4.6037    0.6994 C   0  0  0  0  0  0  0  0  0  0  0  0
    2.3112   -3.5607   -0.2999 C   0  0  0  0  0  0  0  0  0  0  0  0
    3.4388   -2.6652   -0.8175 C   0  0  0  0  0  0  0  0  0  0  0  0
    3.9834   -1.7490    0.2260 C   0  0  0  0  0  0  0  0  0  0  0  0
    5.1309   -1.8886    0.8673 N   0  0  0  0  0  0  0  0  0  0  0  0
    5.2183   -0.8063    1.7155 C   0  0  0  0  0  0  0  0  0  0  0  0
    4.1030   -0.0107    1.5790 C   0  0  0  0  0  0  0  0  0  0  0  0
    3.3236   -0.6112    0.6361 N   0  0  0  0  0  0  0  0  0  0  0  0
    2.1156   -0.1602    0.2106 N   0  0  0  0  0  0  0  0  0  0  0  0
    1.7099    0.9418    0.7708 C   0  0  0  0  0  0  0  0  0  0  0  0
    2.4514    1.6138    1.7206 N   0  0  0  0  0  0  0  0  0  0  0  0
    3.6711    1.1944    2.1895 C   0  0  0  0  0  0  0  0  0  0  0  0
    4.2811    1.8208    3.0493 O   0  0  0  0  0  0  0  0  0  0  0  0
    0.3759    1.5251    0.3916 C   0  0  0  0  0  0  0  0  0  0  0  0
   -0.2455    2.6017    1.0658 C   0  0  0  0  0  0  0  0  0  0  0  0
   -1.5041    3.0450    0.6319 C   0  0  0  0  0  0  0  0  0  0  0  0
   -2.1605    2.4184   -0.4315 C   0  0  0  0  0  0  0  0  0  0  0  0
   -1.5558    1.3424   -1.0757 C   0  0  0  0  0  0  0  0  0  0  0  0
   -0.2849    0.9156   -0.6903 C   0  0  0  0  0  0  0  0  0  0  0  0
   -2.3667    0.5523   -2.4508 S   0  0  0  0  0  6  0  0  0  0  0  0
   -1.3334    0.1342   -3.3733 O   0  0  0  0  0  0  0  0  0  0  0  0
   -3.4368    1.4295   -2.8775 O   0  0  0  0  0  0  0  0  0  0  0  0
   -3.0650   -0.8279   -1.7643 N   0  0  0  0  0  0  0  0  0  0  0  0
   -2.1457   -1.9083   -1.3132 C   0  0  0  0  0  0  0  0  0  0  0  0
   -2.9351   -3.2092   -1.0587 C   0  0  0  0  0  0  0  0  0  0  0  0
   -4.0263   -3.0227   -0.0739 N   0  0  0  0  0  0  0  0  0  0  0  0
   -4.9212   -1.9403   -0.5496 C   0  0  0  0  0  0  0  0  0  0  0  0
   -4.1712   -0.6152   -0.7934 C   0  0  0  0  0  0  0  0  0  0  0  0
   -4.8017   -4.2574    0.1286 C   0  0  0  0  0  0  0  0  0  0  0  0
   -4.0052   -5.3523    0.8298 C   0  0  0  0  0  0  0  0  0  0  0  0
    0.4394    3.1751    2.1058 O   0  0  0  0  0  0  0  0  0  0  0  0
   -0.2300    4.0828    2.9848 C   0  0  0  0  0  0  0  0  0  0  0  0
   -0.0278    5.5157    2.5246 C   0  0  0  0  0  0  0  0  0  0  0  0
    6.3879   -0.6301    2.6046 C   0  0  0  0  0  0  0  0  0  0  0  0
  1  2  1  0
  2  3  1  0
  3  4  1  0
  4  5  2  0
  5  6  1  0
  6  7  2  0
  7  8  1  0
  8  9  1  0
  9 10  2  0
 10 11  1  0
 11 12  1  0
 12 13  2  0
 10 14  1  0
 14 15  2  0
 15 16  1  0
 16 17  2  0
 17 18  1  0
 18 19  2  0
 18 20  1  0
 20 21  2  0
 20 22  2  0
 20 23  1  0
 23 24  1  0
 24 25  1  0
 25 26  1  0
 26 27  1  0
 27 28  1  0
 26 29  1  0
 29 30  1  0
 15 31  1  0
 31 32  1  0
 32 33  1  0
  6 34  1  0
  8  4  1  0
 12  7  1  0
 19 14  1  0
 28 23  1  0
M  END
>  <CID>  (5) 
80

>  <Energy>  (5) 
-31.17110540119707

$$$$

     RDKit          3D

 34 37  0  0  0  0  0  0  0  0999 V2000
    5.2735   -3.9202    0.0218 C   0  0  0  0  0  0  0  0  0  0  0  0
    3.7775   -3.6409   -0.0051 C   0  0  0  0  0  0  0  0  0  0  0  0
    3.1592   -3.5574    1.3918 C   0  0  0  0  0  0  0  0  0  0  0  0
    3.6106   -2.3599    2.1575 C   0  0  0  0  0  0  0  0  0  0  0  0
    4.5415   -2.3374    3.0956 N   0  0  0  0  0  0  0  0  0  0  0  0
    4.6142   -1.0282    3.5171 C   0  0  0  0  0  0  0  0  0  0  0  0
    3.7082   -0.2596    2.8224 C   0  0  0  0  0  0  0  0  0  0  0  0
    3.0747   -1.1056    1.9620 N   0  0  0  0  0  0  0  0  0  0  0  0
    2.1021   -0.7508    1.0824 N   0  0  0  0  0  0  0  0  0  0  0  0
    1.7839    0.5108    1.0915 C   0  0  0  0  0  0  0  0  0  0  0  0
    2.3781    1.4233    1.9397 N   0  0  0  0  0  0  0  0  0  0  0  0
    3.3594    1.1145    2.8474 C   0  0  0  0  0  0  0  0  0  0  0  0
    3.8501    1.9658    3.5811 O   0  0  0  0  0  0  0  0  0  0  0  0
    0.7296    1.0255    0.1468 C   0  0  0  0  0  0  0  0  0  0  0  0
    0.2471    2.3561    0.1367 C   0  0  0  0  0  0  0  0  0  0  0  0
   -0.7469    2.7174   -0.7858 C   0  0  0  0  0  0  0  0  0  0  0  0
   -1.2528    1.7880   -1.6984 C   0  0  0  0  0  0  0  0  0  0  0  0
   -0.7789    0.4785   -1.6832 C   0  0  0  0  0  0  0  0  0  0  0  0
    0.2171    0.0999   -0.7816 C   0  0  0  0  0  0  0  0  0  0  0  0
   -1.3780   -0.6963   -2.8817 S   0  0  0  0  0  6  0  0  0  0  0  0
   -1.9403    0.0643   -3.9783 O   0  0  0  0  0  0  0  0  0  0  0  0
   -0.3200   -1.6575   -3.1074 O   0  0  0  0  0  0  0  0  0  0  0  0
   -2.6454   -1.4772   -2.0795 N   0  0  0  0  0  0  0  0  0  0  0  0
   -3.8608   -0.6723   -1.7861 C   0  0  0  0  0  0  0  0  0  0  0  0
   -5.0314   -1.5982   -1.3928 C   0  0  0  0  0  0  0  0  0  0  0  0
   -4.7018   -2.4664   -0.2392 N   0  0  0  0  0  0  0  0  0  0  0  0
   -3.4876   -3.2538   -0.5645 C   0  0  0  0  0  0  0  0  0  0  0  0
   -2.2870   -2.3609   -0.9373 C   0  0  0  0  0  0  0  0  0  0  0  0
   -5.8079   -3.3767    0.1004 C   0  0  0  0  0  0  0  0  0  0  0  0
   -7.0234   -2.6504    0.6671 C   0  0  0  0  0  0  0  0  0  0  0  0
    0.7721    3.2268    1.0568 O   0  0  0  0  0  0  0  0  0  0  0  0
    0.5221    4.6298    0.9346 C   0  0  0  0  0  0  0  0  0  0  0  0
   -0.6837    5.0299    1.7660 C   0  0  0  0  0  0  0  0  0  0  0  0
    5.5673   -0.6204    4.5729 C   0  0  0  0  0  0  0  0  0  0  0  0
  1  2  1  0
  2  3  1  0
  3  4  1  0
  4  5  2  0
  5  6  1  0
  6  7  2  0
  7  8  1  0
  8  9  1  0
  9 10  2  0
 10 11  1  0
 11 12  1  0
 12 13  2  0
 10 14  1  0
 14 15  2  0
 15 16  1  0
 16 17  2  0
 17 18  1  0
 18 19  2  0
 18 20  1  0
 20 21  2  0
 20 22  2  0
 20 23  1  0
 23 24  1  0
 24 25  1  0
 25 26  1  0
 26 27  1  0
 27 28  1  0
 26 29  1  0
 29 30  1  0
 15 31  1  0
 31 32  1  0
 32 33  1  0
  6 34  1  0
  8  4  1  0
 12  7  1  0
 19 14  1  0
 28 23  1  0
M  END
>  <CID>  (6) 
189

>  <Energy>  (6) 
-31.048054711024367

$$$$

     RDKit          3D

 34 37  0  0  0  0  0  0  0  0999 V2000
    3.0150   -4.4810    0.3228 C   0  0  0  0  0  0  0  0  0  0  0  0
    2.6266   -3.3815   -0.6579 C   0  0  0  0  0  0  0  0  0  0  0  0
    3.7600   -2.3896   -0.9299 C   0  0  0  0  0  0  0  0  0  0  0  0
    4.1413   -1.5929    0.2715 C   0  0  0  0  0  0  0  0  0  0  0  0
    5.2198   -1.7689    1.0163 N   0  0  0  0  0  0  0  0  0  0  0  0
    5.1490   -0.8136    2.0066 C   0  0  0  0  0  0  0  0  0  0  0  0
    4.0126   -0.0538    1.8463 C   0  0  0  0  0  0  0  0  0  0  0  0
    3.3756   -0.5513    0.7486 N   0  0  0  0  0  0  0  0  0  0  0  0
    2.1919   -0.1035    0.2559 N   0  0  0  0  0  0  0  0  0  0  0  0
    1.6627    0.8908    0.9081 C   0  0  0  0  0  0  0  0  0  0  0  0
    2.2601    1.4571    2.0159 N   0  0  0  0  0  0  0  0  0  0  0  0
    3.4476    1.0354    2.5579 C   0  0  0  0  0  0  0  0  0  0  0  0
    3.9254    1.5674    3.5542 O   0  0  0  0  0  0  0  0  0  0  0  0
    0.3359    1.4539    0.4695 C   0  0  0  0  0  0  0  0  0  0  0  0
   -0.3103    2.5505    1.0890 C   0  0  0  0  0  0  0  0  0  0  0  0
   -1.5584    2.9702    0.6033 C   0  0  0  0  0  0  0  0  0  0  0  0
   -2.1734    2.3136   -0.4666 C   0  0  0  0  0  0  0  0  0  0  0  0
   -1.5410    1.2261   -1.0631 C   0  0  0  0  0  0  0  0  0  0  0  0
   -0.2838    0.8138   -0.6205 C   0  0  0  0  0  0  0  0  0  0  0  0
   -2.3007    0.4077   -2.4517 S   0  0  0  0  0  6  0  0  0  0  0  0
   -1.2336   -0.0610   -3.3090 O   0  0  0  0  0  0  0  0  0  0  0  0
   -3.3294    1.2927   -2.9573 O   0  0  0  0  0  0  0  0  0  0  0  0
   -3.0617   -0.9351   -1.7577 N   0  0  0  0  0  0  0  0  0  0  0  0
   -4.2081   -0.6689   -0.8469 C   0  0  0  0  0  0  0  0  0  0  0  0
   -4.9918   -1.9716   -0.5856 C   0  0  0  0  0  0  0  0  0  0  0  0
   -4.1333   -3.0429   -0.0280 N   0  0  0  0  0  0  0  0  0  0  0  0
   -3.0142   -3.2925   -0.9689 C   0  0  0  0  0  0  0  0  0  0  0  0
   -2.1857   -2.0194   -1.2341 C   0  0  0  0  0  0  0  0  0  0  0  0
   -4.9325   -4.2550    0.2148 C   0  0  0  0  0  0  0  0  0  0  0  0
   -4.1756   -5.3063    1.0211 C   0  0  0  0  0  0  0  0  0  0  0  0
    0.3337    3.1479    2.1427 O   0  0  0  0  0  0  0  0  0  0  0  0
   -0.2301    4.3020    2.7724 C   0  0  0  0  0  0  0  0  0  0  0  0
    0.1407    5.5667    2.0178 C   0  0  0  0  0  0  0  0  0  0  0  0
    6.1975   -0.7165    3.0471 C   0  0  0  0  0  0  0  0  0  0  0  0
  1  2  1  0
  2  3  1  0
  3  4  1  0
  4  5  2  0
  5  6  1  0
  6  7  2  0
  7  8  1  0
  8  9  1  0
  9 10  2  0
 10 11  1  0
 11 12  1  0
 12 13  2  0
 10 14  1  0
 14 15  2  0
 15 16  1  0
 16 17  2  0
 17 18  1  0
 18 19  2  0
 18 20  1  0
 20 21  2  0
 20 22  2  0
 20 23  1  0
 23 24  1  0
 24 25  1  0
 25 26  1  0
 26 27  1  0
 27 28  1  0
 26 29  1  0
 29 30  1  0
 15 31  1  0
 31 32  1  0
 32 33  1  0
  6 34  1  0
  8  4  1  0
 12  7  1  0
 19 14  1  0
 28 23  1  0
M  END
>  <CID>  (7) 
117

>  <Energy>  (7) 
-30.981541827694148

$$$$

     RDKit          3D

 34 37  0  0  0  0  0  0  0  0999 V2000
    2.6196   -4.6723    1.6365 C   0  0  0  0  0  0  0  0  0  0  0  0
    2.1663   -3.9798    0.3586 C   0  0  0  0  0  0  0  0  0  0  0  0
    3.2919   -3.2162   -0.3432 C   0  0  0  0  0  0  0  0  0  0  0  0
    3.7537   -2.0221    0.4222 C   0  0  0  0  0  0  0  0  0  0  0  0
    4.8608   -1.9295    1.1383 N   0  0  0  0  0  0  0  0  0  0  0  0
    4.8734   -0.6468    1.6414 C   0  0  0  0  0  0  0  0  0  0  0  0
    3.7541    0.0349    1.2202 C   0  0  0  0  0  0  0  0  0  0  0  0
    3.0462   -0.8406    0.4530 N   0  0  0  0  0  0  0  0  0  0  0  0
    1.8555   -0.5786   -0.1441 N   0  0  0  0  0  0  0  0  0  0  0  0
    1.3955    0.6228    0.0483 C   0  0  0  0  0  0  0  0  0  0  0  0
    2.0652    1.5689    0.7969 N   0  0  0  0  0  0  0  0  0  0  0  0
    3.2617    1.3483    1.4309 C   0  0  0  0  0  0  0  0  0  0  0  0
    3.8042    2.2177    2.1037 O   0  0  0  0  0  0  0  0  0  0  0  0
    0.0724    1.0160   -0.5481 C   0  0  0  0  0  0  0  0  0  0  0  0
   -0.6190    2.2089   -0.2367 C   0  0  0  0  0  0  0  0  0  0  0  0
   -1.8771    2.4425   -0.8142 C   0  0  0  0  0  0  0  0  0  0  0  0
   -2.4564    1.5060   -1.6751 C   0  0  0  0  0  0  0  0  0  0  0  0
   -1.7766    0.3263   -1.9696 C   0  0  0  0  0  0  0  0  0  0  0  0
   -0.5070    0.0962   -1.4411 C   0  0  0  0  0  0  0  0  0  0  0  0
   -2.4887   -0.8603   -3.0883 S   0  0  0  0  0  6  0  0  0  0  0  0
   -3.5798   -0.1929   -3.7671 O   0  0  0  0  0  0  0  0  0  0  0  0
   -1.3953   -1.4444   -3.8339 O   0  0  0  0  0  0  0  0  0  0  0  0
   -3.1415   -2.0300   -2.0763 N   0  0  0  0  0  0  0  0  0  0  0  0
   -2.2808   -3.0661   -1.4587 C   0  0  0  0  0  0  0  0  0  0  0  0
   -2.0330   -2.8085    0.0394 C   0  0  0  0  0  0  0  0  0  0  0  0
   -3.2732   -2.5774    0.8120 N   0  0  0  0  0  0  0  0  0  0  0  0
   -4.0481   -1.4829    0.1931 C   0  0  0  0  0  0  0  0  0  0  0  0
   -4.3636   -1.7391   -1.2935 C   0  0  0  0  0  0  0  0  0  0  0  0
   -2.9410   -2.3038    2.2198 C   0  0  0  0  0  0  0  0  0  0  0  0
   -4.1631   -2.2882    3.1318 C   0  0  0  0  0  0  0  0  0  0  0  0
   -0.0127    3.0851    0.6278 O   0  0  0  0  0  0  0  0  0  0  0  0
   -0.6967    4.2958    0.9591 C   0  0  0  0  0  0  0  0  0  0  0  0
    0.1832    5.0767    1.9188 C   0  0  0  0  0  0  0  0  0  0  0  0
    5.9816   -0.1778    2.5031 C   0  0  0  0  0  0  0  0  0  0  0  0
  1  2  1  0
  2  3  1  0
  3  4  1  0
  4  5  2  0
  5  6  1  0
  6  7  2  0
  7  8  1  0
  8  9  1  0
  9 10  2  0
 10 11  1  0
 11 12  1  0
 12 13  2  0
 10 14  1  0
 14 15  2  0
 15 16  1  0
 16 17  2  0
 17 18  1  0
 18 19  2  0
 18 20  1  0
 20 21  2  0
 20 22  2  0
 20 23  1  0
 23 24  1  0
 24 25  1  0
 25 26  1  0
 26 27  1  0
 27 28  1  0
 26 29  1  0
 29 30  1  0
 15 31  1  0
 31 32  1  0
 32 33  1  0
  6 34  1  0
  8  4  1  0
 12  7  1  0
 19 14  1  0
 28 23  1  0
M  END
>  <CID>  (8) 
36

>  <Energy>  (8) 
-30.600924506273017

$$$$

     RDKit          3D

 34 37  0  0  0  0  0  0  0  0999 V2000
    4.2224   -4.2507    2.6579 C   0  0  0  0  0  0  0  0  0  0  0  0
    2.8986   -4.0142    1.9439 C   0  0  0  0  0  0  0  0  0  0  0  0
    3.0698   -3.5348    0.5011 C   0  0  0  0  0  0  0  0  0  0  0  0
    3.6685   -2.1718    0.4070 C   0  0  0  0  0  0  0  0  0  0  0  0
    4.9239   -1.8894    0.1039 N   0  0  0  0  0  0  0  0  0  0  0  0
    5.0177   -0.5160    0.1463 C   0  0  0  0  0  0  0  0  0  0  0  0
    3.7969    0.0290    0.4736 C   0  0  0  0  0  0  0  0  0  0  0  0
    2.9436   -1.0221    0.6312 N   0  0  0  0  0  0  0  0  0  0  0  0
    1.6270   -0.9258    0.9511 N   0  0  0  0  0  0  0  0  0  0  0  0
    1.1915    0.2877    1.1257 C   0  0  0  0  0  0  0  0  0  0  0  0
    1.9977    1.3993    0.9906 N   0  0  0  0  0  0  0  0  0  0  0  0
    3.3270    1.3550    0.6534 C   0  0  0  0  0  0  0  0  0  0  0  0
    3.9942    2.3760    0.5268 O   0  0  0  0  0  0  0  0  0  0  0  0
   -0.2488    0.5184    1.4904 C   0  0  0  0  0  0  0  0  0  0  0  0
   -0.8817    1.7822    1.4700 C   0  0  0  0  0  0  0  0  0  0  0  0
   -2.2410    1.8741    1.8083 C   0  0  0  0  0  0  0  0  0  0  0  0
   -2.9758    0.7335    2.1432 C   0  0  0  0  0  0  0  0  0  0  0  0
   -2.3535   -0.5127    2.1389 C   0  0  0  0  0  0  0  0  0  0  0  0
   -0.9931   -0.6196    1.8491 C   0  0  0  0  0  0  0  0  0  0  0  0
   -3.2704   -1.9682    2.5932 S   0  0  0  0  0  6  0  0  0  0  0  0
   -4.4643   -1.5155    3.2763 O   0  0  0  0  0  0  0  0  0  0  0  0
   -2.3388   -2.8669    3.2400 O   0  0  0  0  0  0  0  0  0  0  0  0
   -3.7286   -2.6326    1.1206 N   0  0  0  0  0  0  0  0  0  0  0  0
   -4.8009   -1.9999    0.3189 C   0  0  0  0  0  0  0  0  0  0  0  0
   -4.2396   -1.2096   -0.8787 C   0  0  0  0  0  0  0  0  0  0  0  0
   -3.3472   -2.0189   -1.7323 N   0  0  0  0  0  0  0  0  0  0  0  0
   -2.2559   -2.5887   -0.9119 C   0  0  0  0  0  0  0  0  0  0  0  0
   -2.7571   -3.3945    0.3011 C   0  0  0  0  0  0  0  0  0  0  0  0
   -2.7827   -1.2434   -2.8487 C   0  0  0  0  0  0  0  0  0  0  0  0
   -3.8290   -0.8224   -3.8745 C   0  0  0  0  0  0  0  0  0  0  0  0
   -0.1185    2.8661    1.1163 O   0  0  0  0  0  0  0  0  0  0  0  0
   -0.7495    4.1470    1.0429 C   0  0  0  0  0  0  0  0  0  0  0  0
    0.2949    5.1518    0.5889 C   0  0  0  0  0  0  0  0  0  0  0  0
    6.2984    0.1679   -0.1383 C   0  0  0  0  0  0  0  0  0  0  0  0
  1  2  1  0
  2  3  1  0
  3  4  1  0
  4  5  2  0
  5  6  1  0
  6  7  2  0
  7  8  1  0
  8  9  1  0
  9 10  2  0
 10 11  1  0
 11 12  1  0
 12 13  2  0
 10 14  1  0
 14 15  2  0
 15 16  1  0
 16 17  2  0
 17 18  1  0
 18 19  2  0
 18 20  1  0
 20 21  2  0
 20 22  2  0
 20 23  1  0
 23 24  1  0
 24 25  1  0
 25 26  1  0
 26 27  1  0
 27 28  1  0
 26 29  1  0
 29 30  1  0
 15 31  1  0
 31 32  1  0
 32 33  1  0
  6 34  1  0
  8  4  1  0
 12  7  1  0
 19 14  1  0
 28 23  1  0
M  END
>  <CID>  (9) 
157

>  <Energy>  (9) 
-30.36846021408586

$$$$

     RDKit          3D

 34 37  0  0  0  0  0  0  0  0999 V2000
    2.7889   -4.1807   -0.8478 C   0  0  0  0  0  0  0  0  0  0  0  0
    1.9343   -3.7455    0.3349 C   0  0  0  0  0  0  0  0  0  0  0  0
    2.7604   -3.3748    1.5681 C   0  0  0  0  0  0  0  0  0  0  0  0
    3.5671   -2.1343    1.3786 C   0  0  0  0  0  0  0  0  0  0  0  0
    4.8627   -2.0743    1.1233 N   0  0  0  0  0  0  0  0  0  0  0  0
    5.1657   -0.7326    1.0431 C   0  0  0  0  0  0  0  0  0  0  0  0
    4.0310    0.0186    1.2508 C   0  0  0  0  0  0  0  0  0  0  0  0
    3.0211   -0.8722    1.4610 N   0  0  0  0  0  0  0  0  0  0  0  0
    1.7225   -0.5499    1.6898 N   0  0  0  0  0  0  0  0  0  0  0  0
    1.4650    0.7249    1.7099 C   0  0  0  0  0  0  0  0  0  0  0  0
    2.4374    1.6847    1.5159 N   0  0  0  0  0  0  0  0  0  0  0  0
    3.7603    1.4106    1.2755 C   0  0  0  0  0  0  0  0  0  0  0  0
    4.5816    2.3045    1.1017 O   0  0  0  0  0  0  0  0  0  0  0  0
    0.0544    1.2011    1.9327 C   0  0  0  0  0  0  0  0  0  0  0  0
   -0.3231    2.5603    2.0455 C   0  0  0  0  0  0  0  0  0  0  0  0
   -1.6803    2.8852    2.2053 C   0  0  0  0  0  0  0  0  0  0  0  0
   -2.6565    1.8873    2.2705 C   0  0  0  0  0  0  0  0  0  0  0  0
   -2.2763    0.5526    2.1758 C   0  0  0  0  0  0  0  0  0  0  0  0
   -0.9344    0.2047    2.0137 C   0  0  0  0  0  0  0  0  0  0  0  0
   -3.4959   -0.7369    2.2242 S   0  0  0  0  0  6  0  0  0  0  0  0
   -3.1607   -1.5829    3.3484 O   0  0  0  0  0  0  0  0  0  0  0  0
   -4.8028   -0.1277    2.0966 O   0  0  0  0  0  0  0  0  0  0  0  0
   -3.1823   -1.5939    0.7851 N   0  0  0  0  0  0  0  0  0  0  0  0
   -3.4810   -0.8479   -0.4776 C   0  0  0  0  0  0  0  0  0  0  0  0
   -3.0068   -1.6610   -1.7007 C   0  0  0  0  0  0  0  0  0  0  0  0
   -3.6321   -3.0001   -1.7653 N   0  0  0  0  0  0  0  0  0  0  0  0
   -3.3679   -3.7196   -0.4969 C   0  0  0  0  0  0  0  0  0  0  0  0
   -3.8423   -2.9363    0.7432 C   0  0  0  0  0  0  0  0  0  0  0  0
   -3.1373   -3.7904   -2.9040 C   0  0  0  0  0  0  0  0  0  0  0  0
   -3.6028   -3.2444   -4.2501 C   0  0  0  0  0  0  0  0  0  0  0  0
    0.6700    3.5025    1.9594 O   0  0  0  0  0  0  0  0  0  0  0  0
    0.4072    4.8468    2.3725 C   0  0  0  0  0  0  0  0  0  0  0  0
    0.0314    5.7028    1.1761 C   0  0  0  0  0  0  0  0  0  0  0  0
    6.5461   -0.2833    0.7570 C   0  0  0  0  0  0  0  0  0  0  0  0
  1  2  1  0
  2  3  1  0
  3  4  1  0
  4  5  2  0
  5  6  1  0
  6  7  2  0
  7  8  1  0
  8  9  1  0
  9 10  2  0
 10 11  1  0
 11 12  1  0
 12 13  2  0
 10 14  1  0
 14 15  2  0
 15 16  1  0
 16 17  2  0
 17 18  1  0
 18 19  2  0
 18 20  1  0
 20 21  2  0
 20 22  2  0
 20 23  1  0
 23 24  1  0
 24 25  1  0
 25 26  1  0
 26 27  1  0
 27 28  1  0
 26 29  1  0
 29 30  1  0
 15 31  1  0
 31 32  1  0
 32 33  1  0
  6 34  1  0
  8  4  1  0
 12  7  1  0
 19 14  1  0
 28 23  1  0
M  END
>  <CID>  (10) 
32

>  <Energy>  (10) 
-29.755788296762532

$$$$

     RDKit          3D

 34 37  0  0  0  0  0  0  0  0999 V2000
    5.0755   -3.3146   -1.0404 C   0  0  0  0  0  0  0  0  0  0  0  0
    3.5756   -3.0536   -1.0095 C   0  0  0  0  0  0  0  0  0  0  0  0
    2.9396   -3.3604    0.3478 C   0  0  0  0  0  0  0  0  0  0  0  0
    3.3814   -2.4223    1.4201 C   0  0  0  0  0  0  0  0  0  0  0  0
    4.3016   -2.6626    2.3384 N   0  0  0  0  0  0  0  0  0  0  0  0
    4.3791   -1.5158    3.0973 C   0  0  0  0  0  0  0  0  0  0  0  0
    3.4875   -0.5791    2.6262 C   0  0  0  0  0  0  0  0  0  0  0  0
    2.8511   -1.1595    1.5700 N   0  0  0  0  0  0  0  0  0  0  0  0
    1.8764   -0.5794    0.8230 N   0  0  0  0  0  0  0  0  0  0  0  0
    1.5625    0.6341    1.1714 C   0  0  0  0  0  0  0  0  0  0  0  0
    2.1698    1.2873    2.2252 N   0  0  0  0  0  0  0  0  0  0  0  0
    3.1525    0.7430    3.0129 C   0  0  0  0  0  0  0  0  0  0  0  0
    3.6553    1.3678    3.9404 O   0  0  0  0  0  0  0  0  0  0  0  0
    0.4884    1.3771    0.4215 C   0  0  0  0  0  0  0  0  0  0  0  0
    0.1189    2.7196    0.6768 C   0  0  0  0  0  0  0  0  0  0  0  0
   -0.9233    3.2986   -0.0654 C   0  0  0  0  0  0  0  0  0  0  0  0
   -1.5842    2.5764   -1.0622 C   0  0  0  0  0  0  0  0  0  0  0  0
   -1.2063    1.2624   -1.3187 C   0  0  0  0  0  0  0  0  0  0  0  0
   -0.1779    0.6623   -0.5902 C   0  0  0  0  0  0  0  0  0  0  0  0
   -2.0337    0.3174   -2.5737 S   0  0  0  0  0  6  0  0  0  0  0  0
   -3.1675    1.0845   -3.0440 O   0  0  0  0  0  0  0  0  0  0  0  0
   -1.0106   -0.1535   -3.4810 O   0  0  0  0  0  0  0  0  0  0  0  0
   -2.6371   -1.0130   -1.6960 N   0  0  0  0  0  0  0  0  0  0  0  0
   -3.7152   -0.6867   -0.7096 C   0  0  0  0  0  0  0  0  0  0  0  0
   -4.0749   -1.9365    0.1221 C   0  0  0  0  0  0  0  0  0  0  0  0
   -4.5078   -3.0734   -0.7198 N   0  0  0  0  0  0  0  0  0  0  0  0
   -3.4539   -3.3654   -1.7202 C   0  0  0  0  0  0  0  0  0  0  0  0
   -3.0877   -2.1376   -2.5759 C   0  0  0  0  0  0  0  0  0  0  0  0
   -4.7892   -4.2779    0.0773 C   0  0  0  0  0  0  0  0  0  0  0  0
   -6.0352   -4.1355    0.9448 C   0  0  0  0  0  0  0  0  0  0  0  0
    0.7913    3.3840    1.6708 O   0  0  0  0  0  0  0  0  0  0  0  0
    0.6849    4.8078    1.7679 C   0  0  0  0  0  0  0  0  0  0  0  0
   -0.3887    5.1898    2.7710 C   0  0  0  0  0  0  0  0  0  0  0  0
    5.3222   -1.4173    4.2330 C   0  0  0  0  0  0  0  0  0  0  0  0
  1  2  1  0
  2  3  1  0
  3  4  1  0
  4  5  2  0
  5  6  1  0
  6  7  2  0
  7  8  1  0
  8  9  1  0
  9 10  2  0
 10 11  1  0
 11 12  1  0
 12 13  2  0
 10 14  1  0
 14 15  2  0
 15 16  1  0
 16 17  2  0
 17 18  1  0
 18 19  2  0
 18 20  1  0
 20 21  2  0
 20 22  2  0
 20 23  1  0
 23 24  1  0
 24 25  1  0
 25 26  1  0
 26 27  1  0
 27 28  1  0
 26 29  1  0
 29 30  1  0
 15 31  1  0
 31 32  1  0
 32 33  1  0
  6 34  1  0
  8  4  1  0
 12  7  1  0
 19 14  1  0
 28 23  1  0
M  END
>  <CID>  (11) 
108

>  <Energy>  (11) 
-29.593233770368823

$$$$
