
     RDKit          3D

 34 37  0  0  0  0  0  0  0  0999 V2000
   -3.7555    4.4387   -3.7411 C   0  0  0  0  0  0  0  0  0  0  0  0
   -4.4442    3.3203   -2.9831 C   0  0  0  0  0  0  0  0  0  0  0  0
   -3.4330    2.5306   -2.2008 C   0  0  0  0  0  0  0  0  0  0  0  0
   -4.1767    1.4416   -1.4743 C   0  0  0  0  0  0  0  0  0  0  0  0
   -5.4822    1.1732   -1.4819 N   0  0  0  0  0  0  0  0  0  0  0  0
   -5.7147    0.1158   -0.6943 C   0  0  0  0  0  0  0  0  0  0  0  0
   -4.4903   -0.2654   -0.1925 C   0  0  0  0  0  0  0  0  0  0  0  0
   -3.5507    0.5472   -0.6710 N   0  0  0  0  0  0  0  0  0  0  0  0
   -2.2722    0.3850   -0.3310 N   0  0  0  0  0  0  0  0  0  0  0  0
   -1.8734   -0.5929    0.5000 C   0  0  0  0  0  0  0  0  0  0  0  0
   -2.7996   -1.4257    0.9966 N   0  0  0  0  0  0  0  0  0  0  0  0
   -4.0857   -1.2758    0.6649 C   0  0  0  0  0  0  0  0  0  0  0  0
   -5.0084   -2.0265    1.0979 O   0  0  0  0  0  0  0  0  0  0  0  0
   -0.4489   -0.7498    0.8615 C   0  0  0  0  0  0  0  0  0  0  0  0
   -0.1047   -1.7716    1.7182 C   0  0  0  0  0  0  0  0  0  0  0  0
    1.2328   -1.9068    2.0500 C   0  0  0  0  0  0  0  0  0  0  0  0
    2.1675   -1.0343    1.5262 C   0  0  0  0  0  0  0  0  0  0  0  0
    1.8259   -0.0075    0.6660 C   0  0  0  0  0  0  0  0  0  0  0  0
    0.4887    0.1220    0.3388 C   0  0  0  0  0  0  0  0  0  0  0  0
    3.0295    1.0984    0.0077 S   0  0  0  0  0  0  0  0  0  0  0  0
    2.2981    2.3818   -0.2891 O   0  0  0  0  0  0  0  0  0  0  0  0
    4.1450    1.3409    0.9701 O   0  0  0  0  0  0  0  0  0  0  0  0
    3.5947    0.3742   -1.4737 N   0  0  0  0  0  0  0  0  0  0  0  0
    4.2052   -0.9117   -1.1128 C   0  0  0  0  0  0  0  0  0  0  0  0
    5.3481   -0.5766   -0.1764 C   0  0  0  0  0  0  0  0  0  0  0  0
    6.3868    0.1434   -0.8740 N   0  0  0  0  0  0  0  0  0  0  0  0
    5.9512    0.7542   -2.0873 C   0  0  0  0  0  0  0  0  0  0  0  0
    4.5437    1.2587   -2.0671 C   0  0  0  0  0  0  0  0  0  0  0  0
    7.2081    0.9586   -0.0387 C   0  0  0  0  0  0  0  0  0  0  0  0
    8.0394    0.0570    0.8581 C   0  0  0  0  0  0  0  0  0  0  0  0
   -1.0943   -2.6138    2.2092 O   0  0  0  0  0  0  0  0  0  0  0  0
   -0.6766   -3.6489    3.0888 C   0  0  0  0  0  0  0  0  0  0  0  0
   -0.0088   -3.1068    4.3258 C   0  0  0  0  0  0  0  0  0  0  0  0
   -7.0448   -0.5274   -0.4131 C   0  0  0  0  0  0  0  0  0  0  0  0
  1  2  1  0
  2  3  1  0
  3  4  1  0
  4  5  2  0
  5  6  1  0
  6  7  2  0
  7  8  1  0
  8  9  1  0
  9 10  2  0
 10 11  1  0
 11 12  1  0
 12 13  2  0
 10 14  1  0
 14 15  2  0
 15 16  1  0
 16 17  2  0
 17 18  1  0
 18 19  2  0
 18 20  1  0
 20 21  2  0
 20 22  2  0
 20 23  1  0
 23 24  1  0
 24 25  1  0
 25 26  1  0
 26 27  1  0
 27 28  1  0
 26 29  1  0
 29 30  1  0
 15 31  1  0
 31 32  1  0
 32 33  1  0
  6 34  1  0
  8  4  1  0
 12  7  1  0
 19 14  1  0
 28 23  1  0
M  END
>  <CID>  (1) 
-1

>  <Energy>  (1) 


$$$$

     RDKit          3D

 34 37  0  0  0  0  0  0  0  0999 V2000
    3.1700   -4.1565   -1.0992 C   0  0  0  0  0  0  0  0  0  0  0  0
    2.1924   -3.8108    0.0148 C   0  0  0  0  0  0  0  0  0  0  0  0
    2.8857   -3.4328    1.3246 C   0  0  0  0  0  0  0  0  0  0  0  0
    3.6362   -2.1469    1.2362 C   0  0  0  0  0  0  0  0  0  0  0  0
    4.9425   -2.0122    1.0855 N   0  0  0  0  0  0  0  0  0  0  0  0
    5.1780   -0.6544    1.0686 C   0  0  0  0  0  0  0  0  0  0  0  0
    3.9924    0.0311    1.2090 C   0  0  0  0  0  0  0  0  0  0  0  0
    3.0189   -0.9175    1.3147 N   0  0  0  0  0  0  0  0  0  0  0  0
    1.6914   -0.6698    1.4577 N   0  0  0  0  0  0  0  0  0  0  0  0
    1.3691    0.5905    1.5019 C   0  0  0  0  0  0  0  0  0  0  0  0
    2.2998    1.6060    1.4125 N   0  0  0  0  0  0  0  0  0  0  0  0
    3.6484    1.4071    1.2543 C   0  0  0  0  0  0  0  0  0  0  0  0
    4.4316    2.3466    1.1570 O   0  0  0  0  0  0  0  0  0  0  0  0
   -0.0741    0.9852    1.6535 C   0  0  0  0  0  0  0  0  0  0  0  0
   -0.5646    2.2978    1.4627 C   0  0  0  0  0  0  0  0  0  0  0  0
   -1.9388    2.5399    1.6088 C   0  0  0  0  0  0  0  0  0  0  0  0
   -2.8239    1.5031    1.9198 C   0  0  0  0  0  0  0  0  0  0  0  0
   -2.3374    0.2094    2.0909 C   0  0  0  0  0  0  0  0  0  0  0  0
   -0.9706   -0.0473    1.9851 C   0  0  0  0  0  0  0  0  0  0  0  0
   -3.4482   -1.1114    2.5337 S   0  0  0  0  0  6  0  0  0  0  0  0
   -4.6917   -0.4989    2.9529 O   0  0  0  0  0  0  0  0  0  0  0  0
   -2.7199   -2.0021    3.4112 O   0  0  0  0  0  0  0  0  0  0  0  0
   -3.7267   -1.9055    1.0654 N   0  0  0  0  0  0  0  0  0  0  0  0
   -2.6147   -2.7164    0.4997 C   0  0  0  0  0  0  0  0  0  0  0  0
   -3.1376   -3.6283   -0.6307 C   0  0  0  0  0  0  0  0  0  0  0  0
   -3.8650   -2.9253   -1.7122 N   0  0  0  0  0  0  0  0  0  0  0  0
   -4.9462   -2.1204   -1.0962 C   0  0  0  0  0  0  0  0  0  0  0  0
   -4.4890   -1.1633    0.0260 C   0  0  0  0  0  0  0  0  0  0  0  0
   -3.0021   -2.1022   -2.5699 C   0  0  0  0  0  0  0  0  0  0  0  0
   -2.0463   -2.9339   -3.4201 C   0  0  0  0  0  0  0  0  0  0  0  0
    0.3495    3.2726    1.1573 O   0  0  0  0  0  0  0  0  0  0  0  0
   -0.0904    4.5900    0.8162 C   0  0  0  0  0  0  0  0  0  0  0  0
   -0.2013    5.4581    2.0579 C   0  0  0  0  0  0  0  0  0  0  0  0
    6.5506   -0.1225    0.9159 C   0  0  0  0  0  0  0  0  0  0  0  0
  1  2  1  0
  2  3  1  0
  3  4  1  0
  4  5  2  0
  5  6  1  0
  6  7  2  0
  7  8  1  0
  8  9  1  0
  9 10  2  0
 10 11  1  0
 11 12  1  0
 12 13  2  0
 10 14  1  0
 14 15  2  0
 15 16  1  0
 16 17  2  0
 17 18  1  0
 18 19  2  0
 18 20  1  0
 20 21  2  0
 20 22  2  0
 20 23  1  0
 23 24  1  0
 24 25  1  0
 25 26  1  0
 26 27  1  0
 27 28  1  0
 26 29  1  0
 29 30  1  0
 15 31  1  0
 31 32  1  0
 32 33  1  0
  6 34  1  0
  8  4  1  0
 12  7  1  0
 19 14  1  0
 28 23  1  0
M  END
>  <CID>  (2) 
9

>  <Energy>  (2) 
-27.32767285121009

$$$$

     RDKit          3D

 34 37  0  0  0  0  0  0  0  0999 V2000
    2.5041   -5.2786    1.9321 C   0  0  0  0  0  0  0  0  0  0  0  0
    3.1750   -3.9143    1.9415 C   0  0  0  0  0  0  0  0  0  0  0  0
    3.3152   -3.3510    0.5278 C   0  0  0  0  0  0  0  0  0  0  0  0
    3.9647   -2.0092    0.5369 C   0  0  0  0  0  0  0  0  0  0  0  0
    5.2472   -1.7590    0.3371 N   0  0  0  0  0  0  0  0  0  0  0  0
    5.3816   -0.3926    0.4463 C   0  0  0  0  0  0  0  0  0  0  0  0
    4.1590    0.1801    0.7146 C   0  0  0  0  0  0  0  0  0  0  0  0
    3.2636   -0.8460    0.7666 N   0  0  0  0  0  0  0  0  0  0  0  0
    1.9324   -0.7185    1.0059 N   0  0  0  0  0  0  0  0  0  0  0  0
    1.5252    0.5014    1.2039 C   0  0  0  0  0  0  0  0  0  0  0  0
    2.3739    1.5893    1.1742 N   0  0  0  0  0  0  0  0  0  0  0  0
    3.7207    1.5126    0.9233 C   0  0  0  0  0  0  0  0  0  0  0  0
    4.4281    2.5132    0.8878 O   0  0  0  0  0  0  0  0  0  0  0  0
    0.0730    0.7684    1.4833 C   0  0  0  0  0  0  0  0  0  0  0  0
   -0.5193    2.0504    1.4403 C   0  0  0  0  0  0  0  0  0  0  0  0
   -1.8865    2.1843    1.7245 C   0  0  0  0  0  0  0  0  0  0  0  0
   -2.6743    1.0643    2.0023 C   0  0  0  0  0  0  0  0  0  0  0  0
   -2.0948   -0.2026    2.0020 C   0  0  0  0  0  0  0  0  0  0  0  0
   -0.7253   -0.3509    1.7787 C   0  0  0  0  0  0  0  0  0  0  0  0
   -3.0811   -1.6328    2.3846 S   0  0  0  0  0  6  0  0  0  0  0  0
   -4.2861   -1.1559    3.0300 O   0  0  0  0  0  0  0  0  0  0  0  0
   -2.2125   -2.5851    3.0420 O   0  0  0  0  0  0  0  0  0  0  0  0
   -3.5015   -2.2445    0.8733 N   0  0  0  0  0  0  0  0  0  0  0  0
   -2.5030   -3.0023    0.0788 C   0  0  0  0  0  0  0  0  0  0  0  0
   -1.9684   -2.1941   -1.1199 C   0  0  0  0  0  0  0  0  0  0  0  0
   -3.0033   -1.5784   -1.9796 N   0  0  0  0  0  0  0  0  0  0  0  0
   -3.9153   -0.7883   -1.1274 C   0  0  0  0  0  0  0  0  0  0  0  0
   -4.5301   -1.5497    0.0622 C   0  0  0  0  0  0  0  0  0  0  0  0
   -3.6898   -2.5959   -2.7905 C   0  0  0  0  0  0  0  0  0  0  0  0
   -4.5542   -1.9879   -3.8898 C   0  0  0  0  0  0  0  0  0  0  0  0
    0.2936    3.1190    1.1620 O   0  0  0  0  0  0  0  0  0  0  0  0
   -0.2923    4.3213    0.6541 C   0  0  0  0  0  0  0  0  0  0  0  0
   -0.4135    5.3491    1.7642 C   0  0  0  0  0  0  0  0  0  0  0  0
    6.7008    0.2578    0.2842 C   0  0  0  0  0  0  0  0  0  0  0  0
  1  2  1  0
  2  3  1  0
  3  4  1  0
  4  5  2  0
  5  6  1  0
  6  7  2  0
  7  8  1  0
  8  9  1  0
  9 10  2  0
 10 11  1  0
 11 12  1  0
 12 13  2  0
 10 14  1  0
 14 15  2  0
 15 16  1  0
 16 17  2  0
 17 18  1  0
 18 19  2  0
 18 20  1  0
 20 21  2  0
 20 22  2  0
 20 23  1  0
 23 24  1  0
 24 25  1  0
 25 26  1  0
 26 27  1  0
 27 28  1  0
 26 29  1  0
 29 30  1  0
 15 31  1  0
 31 32  1  0
 32 33  1  0
  6 34  1  0
  8  4  1  0
 12  7  1  0
 19 14  1  0
 28 23  1  0
M  END
>  <CID>  (3) 
7

>  <Energy>  (3) 
-25.4264361824031

$$$$

     RDKit          3D

 34 37  0  0  0  0  0  0  0  0999 V2000
    4.4074   -4.3252    2.8507 C   0  0  0  0  0  0  0  0  0  0  0  0
    3.0950   -4.0338    2.1361 C   0  0  0  0  0  0  0  0  0  0  0  0
    3.2881   -3.5666    0.6927 C   0  0  0  0  0  0  0  0  0  0  0  0
    3.9253   -2.2215    0.5967 C   0  0  0  0  0  0  0  0  0  0  0  0
    5.1943   -1.9758    0.3178 N   0  0  0  0  0  0  0  0  0  0  0  0
    5.3213   -0.6046    0.3353 C   0  0  0  0  0  0  0  0  0  0  0  0
    4.1073   -0.0241    0.6246 C   0  0  0  0  0  0  0  0  0  0  0  0
    3.2255   -1.0502    0.7889 N   0  0  0  0  0  0  0  0  0  0  0  0
    1.9075   -0.9147    1.0891 N   0  0  0  0  0  0  0  0  0  0  0  0
    1.4960    0.3121    1.2252 C   0  0  0  0  0  0  0  0  0  0  0  0
    2.3311    1.3997    1.0692 N   0  0  0  0  0  0  0  0  0  0  0  0
    3.6661    1.3159    0.7644 C   0  0  0  0  0  0  0  0  0  0  0  0
    4.3620    2.3172    0.6351 O   0  0  0  0  0  0  0  0  0  0  0  0
    0.0552    0.5881    1.5669 C   0  0  0  0  0  0  0  0  0  0  0  0
   -0.5098    1.8825    1.6570 C   0  0  0  0  0  0  0  0  0  0  0  0
   -1.8717    2.0152    1.9671 C   0  0  0  0  0  0  0  0  0  0  0  0
   -2.6699    0.8912    2.1947 C   0  0  0  0  0  0  0  0  0  0  0  0
   -2.1134   -0.3822    2.0980 C   0  0  0  0  0  0  0  0  0  0  0  0
   -0.7565   -0.5360    1.8105 C   0  0  0  0  0  0  0  0  0  0  0  0
   -3.1181   -1.8171    2.4293 S   0  0  0  0  0  6  0  0  0  0  0  0
   -4.2687   -1.3635    3.1829 O   0  0  0  0  0  0  0  0  0  0  0  0
   -2.2426   -2.8457    2.9480 O   0  0  0  0  0  0  0  0  0  0  0  0
   -3.6497   -2.2920    0.8998 N   0  0  0  0  0  0  0  0  0  0  0  0
   -2.6772   -2.9946    0.0211 C   0  0  0  0  0  0  0  0  0  0  0  0
   -3.2267   -3.1310   -1.4097 C   0  0  0  0  0  0  0  0  0  0  0  0
   -3.4439   -1.8188   -2.0539 N   0  0  0  0  0  0  0  0  0  0  0  0
   -4.0236   -0.8377   -1.1125 C   0  0  0  0  0  0  0  0  0  0  0  0
   -4.6209   -1.4258    0.1823 C   0  0  0  0  0  0  0  0  0  0  0  0
   -4.2197   -1.9708   -3.2904 C   0  0  0  0  0  0  0  0  0  0  0  0
   -4.0699   -0.7633   -4.2103 C   0  0  0  0  0  0  0  0  0  0  0  0
    0.3132    2.9516    1.4119 O   0  0  0  0  0  0  0  0  0  0  0  0
   -0.1161    4.2740    1.7470 C   0  0  0  0  0  0  0  0  0  0  0  0
   -0.7569    4.9463    0.5458 C   0  0  0  0  0  0  0  0  0  0  0  0
    6.6243    0.0433    0.0660 C   0  0  0  0  0  0  0  0  0  0  0  0
  1  2  1  0
  2  3  1  0
  3  4  1  0
  4  5  2  0
  5  6  1  0
  6  7  2  0
  7  8  1  0
  8  9  1  0
  9 10  2  0
 10 11  1  0
 11 12  1  0
 12 13  2  0
 10 14  1  0
 14 15  2  0
 15 16  1  0
 16 17  2  0
 17 18  1  0
 18 19  2  0
 18 20  1  0
 20 21  2  0
 20 22  2  0
 20 23  1  0
 23 24  1  0
 24 25  1  0
 25 26  1  0
 26 27  1  0
 27 28  1  0
 26 29  1  0
 29 30  1  0
 15 31  1  0
 31 32  1  0
 32 33  1  0
  6 34  1  0
  8  4  1  0
 12  7  1  0
 19 14  1  0
 28 23  1  0
M  END
>  <CID>  (4) 
0

>  <Energy>  (4) 
-23.42186131633892

$$$$

     RDKit          3D

 34 37  0  0  0  0  0  0  0  0999 V2000
    1.4909   -3.6874    0.5031 C   0  0  0  0  0  0  0  0  0  0  0  0
    2.8425   -4.0213   -0.1109 C   0  0  0  0  0  0  0  0  0  0  0  0
    3.5217   -2.8194   -0.7691 C   0  0  0  0  0  0  0  0  0  0  0  0
    4.0346   -1.8341    0.2264 C   0  0  0  0  0  0  0  0  0  0  0  0
    5.1799   -1.9150    0.8824 N   0  0  0  0  0  0  0  0  0  0  0  0
    5.2356   -0.7911    1.6764 C   0  0  0  0  0  0  0  0  0  0  0  0
    4.1020   -0.0315    1.4962 C   0  0  0  0  0  0  0  0  0  0  0  0
    3.3473   -0.6913    0.5729 N   0  0  0  0  0  0  0  0  0  0  0  0
    2.1388   -0.2816    0.1080 N   0  0  0  0  0  0  0  0  0  0  0  0
    1.7056    0.8380    0.6092 C   0  0  0  0  0  0  0  0  0  0  0  0
    2.4140    1.5595    1.5479 N   0  0  0  0  0  0  0  0  0  0  0  0
    3.6360    1.1879    2.0497 C   0  0  0  0  0  0  0  0  0  0  0  0
    4.2223    1.8642    2.8873 O   0  0  0  0  0  0  0  0  0  0  0  0
    0.3764    1.3894    0.1674 C   0  0  0  0  0  0  0  0  0  0  0  0
   -0.2454    2.5268    0.7323 C   0  0  0  0  0  0  0  0  0  0  0  0
   -1.5085    2.9193    0.2638 C   0  0  0  0  0  0  0  0  0  0  0  0
   -2.1470    2.2145   -0.7611 C   0  0  0  0  0  0  0  0  0  0  0  0
   -1.5298    1.0976   -1.3189 C   0  0  0  0  0  0  0  0  0  0  0  0
   -0.2674    0.6998   -0.8770 C   0  0  0  0  0  0  0  0  0  0  0  0
   -2.3106    0.2226   -2.6603 S   0  0  0  0  0  6  0  0  0  0  0  0
   -1.2544   -0.2870   -3.5084 O   0  0  0  0  0  0  0  0  0  0  0  0
   -3.3444    1.0881   -3.1890 O   0  0  0  0  0  0  0  0  0  0  0  0
   -3.0633   -1.0827   -1.9009 N   0  0  0  0  0  0  0  0  0  0  0  0
   -4.2788   -0.7936   -1.0911 C   0  0  0  0  0  0  0  0  0  0  0  0
   -4.7358   -2.0485   -0.3229 C   0  0  0  0  0  0  0  0  0  0  0  0
   -3.7242   -2.5095    0.6436 N   0  0  0  0  0  0  0  0  0  0  0  0
   -2.3463   -2.3375    0.1512 C   0  0  0  0  0  0  0  0  0  0  0  0
   -2.2178   -2.1919   -1.3771 C   0  0  0  0  0  0  0  0  0  0  0  0
   -4.0081   -3.8383    1.1926 C   0  0  0  0  0  0  0  0  0  0  0  0
   -3.8499   -5.0165    0.2330 C   0  0  0  0  0  0  0  0  0  0  0  0
    0.4154    3.1759    1.7431 O   0  0  0  0  0  0  0  0  0  0  0  0
    0.0271    4.5060    2.0997 C   0  0  0  0  0  0  0  0  0  0  0  0
   -0.9048    4.4814    3.2978 C   0  0  0  0  0  0  0  0  0  0  0  0
    6.3978   -0.5399    2.5576 C   0  0  0  0  0  0  0  0  0  0  0  0
  1  2  1  0
  2  3  1  0
  3  4  1  0
  4  5  2  0
  5  6  1  0
  6  7  2  0
  7  8  1  0
  8  9  1  0
  9 10  2  0
 10 11  1  0
 11 12  1  0
 12 13  2  0
 10 14  1  0
 14 15  2  0
 15 16  1  0
 16 17  2  0
 17 18  1  0
 18 19  2  0
 18 20  1  0
 20 21  2  0
 20 22  2  0
 20 23  1  0
 23 24  1  0
 24 25  1  0
 25 26  1  0
 26 27  1  0
 27 28  1  0
 26 29  1  0
 29 30  1  0
 15 31  1  0
 31 32  1  0
 32 33  1  0
  6 34  1  0
  8  4  1  0
 12  7  1  0
 19 14  1  0
 28 23  1  0
M  END
>  <CID>  (5) 
4

>  <Energy>  (5) 
-23.071093589699483

$$$$

     RDKit          3D

 34 37  0  0  0  0  0  0  0  0999 V2000
    4.0203   -4.4261    2.3517 C   0  0  0  0  0  0  0  0  0  0  0  0
    2.7269   -4.0336    1.6507 C   0  0  0  0  0  0  0  0  0  0  0  0
    2.9517   -3.4635    0.2492 C   0  0  0  0  0  0  0  0  0  0  0  0
    3.6497   -2.1455    0.2628 C   0  0  0  0  0  0  0  0  0  0  0  0
    4.9288   -1.9362    0.0029 N   0  0  0  0  0  0  0  0  0  0  0  0
    5.1214   -0.5798    0.1451 C   0  0  0  0  0  0  0  0  0  0  0  0
    3.9358    0.0296    0.4885 C   0  0  0  0  0  0  0  0  0  0  0  0
    3.0052   -0.9638    0.5565 N   0  0  0  0  0  0  0  0  0  0  0  0
    1.6926   -0.7932    0.8629 N   0  0  0  0  0  0  0  0  0  0  0  0
    1.3430    0.4342    1.1149 C   0  0  0  0  0  0  0  0  0  0  0  0
    2.2299    1.4903    1.0704 N   0  0  0  0  0  0  0  0  0  0  0  0
    3.5595    1.3709    0.7535 C   0  0  0  0  0  0  0  0  0  0  0  0
    4.3021    2.3456    0.7108 O   0  0  0  0  0  0  0  0  0  0  0  0
   -0.0815    0.7454    1.4807 C   0  0  0  0  0  0  0  0  0  0  0  0
   -0.6284    2.0491    1.5018 C   0  0  0  0  0  0  0  0  0  0  0  0
   -1.9717    2.2205    1.8674 C   0  0  0  0  0  0  0  0  0  0  0  0
   -2.7773    1.1214    2.1779 C   0  0  0  0  0  0  0  0  0  0  0  0
   -2.2434   -0.1643    2.1234 C   0  0  0  0  0  0  0  0  0  0  0  0
   -0.8982   -0.3532    1.8050 C   0  0  0  0  0  0  0  0  0  0  0  0
   -3.2556   -1.5681    2.5538 S   0  0  0  0  0  6  0  0  0  0  0  0
   -4.3879   -1.0604    3.2992 O   0  0  0  0  0  0  0  0  0  0  0  0
   -2.3772   -2.5723    3.1135 O   0  0  0  0  0  0  0  0  0  0  0  0
   -3.8131   -2.1189    1.0595 N   0  0  0  0  0  0  0  0  0  0  0  0
   -4.7869   -1.2792    0.3103 C   0  0  0  0  0  0  0  0  0  0  0  0
   -4.2135   -0.8538   -1.0537 C   0  0  0  0  0  0  0  0  0  0  0  0
   -3.9077   -1.9926   -1.9450 N   0  0  0  0  0  0  0  0  0  0  0  0
   -3.4813   -3.1832   -1.1763 C   0  0  0  0  0  0  0  0  0  0  0  0
   -2.8614   -2.8748    0.2015 C   0  0  0  0  0  0  0  0  0  0  0  0
   -2.9526   -1.5947   -2.9862 C   0  0  0  0  0  0  0  0  0  0  0  0
   -2.9754   -2.5410   -4.1816 C   0  0  0  0  0  0  0  0  0  0  0  0
    0.2071    3.0887    1.1850 O   0  0  0  0  0  0  0  0  0  0  0  0
   -0.3384    4.3846    0.9234 C   0  0  0  0  0  0  0  0  0  0  0  0
   -0.3148    5.2330    2.1824 C   0  0  0  0  0  0  0  0  0  0  0  0
    6.4554    0.0255   -0.0642 C   0  0  0  0  0  0  0  0  0  0  0  0
  1  2  1  0
  2  3  1  0
  3  4  1  0
  4  5  2  0
  5  6  1  0
  6  7  2  0
  7  8  1  0
  8  9  1  0
  9 10  2  0
 10 11  1  0
 11 12  1  0
 12 13  2  0
 10 14  1  0
 14 15  2  0
 15 16  1  0
 16 17  2  0
 17 18  1  0
 18 19  2  0
 18 20  1  0
 20 21  2  0
 20 22  2  0
 20 23  1  0
 23 24  1  0
 24 25  1  0
 25 26  1  0
 26 27  1  0
 27 28  1  0
 26 29  1  0
 29 30  1  0
 15 31  1  0
 31 32  1  0
 32 33  1  0
  6 34  1  0
  8  4  1  0
 12  7  1  0
 19 14  1  0
 28 23  1  0
M  END
>  <CID>  (6) 
1

>  <Energy>  (6) 
-23.066013981413125

$$$$

     RDKit          3D

 34 37  0  0  0  0  0  0  0  0999 V2000
    3.5907   -4.1414    4.0049 C   0  0  0  0  0  0  0  0  0  0  0  0
    4.2658   -3.2234    2.9979 C   0  0  0  0  0  0  0  0  0  0  0  0
    3.2591   -2.2854    2.3306 C   0  0  0  0  0  0  0  0  0  0  0  0
    3.9036   -1.3485    1.3614 C   0  0  0  0  0  0  0  0  0  0  0  0
    5.1649   -1.3460    0.9628 N   0  0  0  0  0  0  0  0  0  0  0  0
    5.2822   -0.2852    0.0913 C   0  0  0  0  0  0  0  0  0  0  0  0
    4.0676    0.3497   -0.0415 C   0  0  0  0  0  0  0  0  0  0  0  0
    3.1946   -0.3354    0.7521 N   0  0  0  0  0  0  0  0  0  0  0  0
    1.8716   -0.0557    0.8910 N   0  0  0  0  0  0  0  0  0  0  0  0
    1.4722    0.9702    0.2040 C   0  0  0  0  0  0  0  0  0  0  0  0
    2.2858    1.7311   -0.6095 N   0  0  0  0  0  0  0  0  0  0  0  0
    3.6234    1.4745   -0.7832 C   0  0  0  0  0  0  0  0  0  0  0  0
    4.3173    2.1673   -1.5192 O   0  0  0  0  0  0  0  0  0  0  0  0
    0.0569    1.3830    0.2336 C   0  0  0  0  0  0  0  0  0  0  0  0
   -0.5524    1.8095    1.4179 C   0  0  0  0  0  0  0  0  0  0  0  0
   -1.8885    2.2217    1.4075 C   0  0  0  0  0  0  0  0  0  0  0  0
   -2.6333    2.1519    0.2280 C   0  0  0  0  0  0  0  0  0  0  0  0
   -2.0330    1.6691   -0.9393 C   0  0  0  0  0  0  0  0  0  0  0  0
   -0.6806    1.3118   -0.9530 C   0  0  0  0  0  0  0  0  0  0  0  0
   -2.9725    1.5853   -2.4530 S   0  0  0  0  0  6  0  0  0  0  0  0
   -2.0196    1.6862   -3.5393 O   0  0  0  0  0  0  0  0  0  0  0  0
   -4.0680    2.5227   -2.3275 O   0  0  0  0  0  0  0  0  0  0  0  0
   -3.6027    0.0136   -2.4348 N   0  0  0  0  0  0  0  0  0  0  0  0
   -2.6334   -1.1083   -2.5778 C   0  0  0  0  0  0  0  0  0  0  0  0
   -3.3676   -2.4463   -2.8175 C   0  0  0  0  0  0  0  0  0  0  0  0
   -4.4193   -2.7703   -1.8232 N   0  0  0  0  0  0  0  0  0  0  0  0
   -5.3477   -1.6220   -1.7459 C   0  0  0  0  0  0  0  0  0  0  0  0
   -4.6746   -0.2684   -1.4394 C   0  0  0  0  0  0  0  0  0  0  0  0
   -3.8346   -3.1598   -0.5311 C   0  0  0  0  0  0  0  0  0  0  0  0
   -4.8708   -3.6377    0.4780 C   0  0  0  0  0  0  0  0  0  0  0  0
    0.1747    1.9403    2.5714 O   0  0  0  0  0  0  0  0  0  0  0  0
   -0.1179    0.8675    3.4789 C   0  0  0  0  0  0  0  0  0  0  0  0
    0.6794    1.0960    4.7526 C   0  0  0  0  0  0  0  0  0  0  0  0
    6.5773    0.0343   -0.5501 C   0  0  0  0  0  0  0  0  0  0  0  0
  1  2  1  0
  2  3  1  0
  3  4  1  0
  4  5  2  0
  5  6  1  0
  6  7  2  0
  7  8  1  0
  8  9  1  0
  9 10  2  0
 10 11  1  0
 11 12  1  0
 12 13  2  0
 10 14  1  0
 14 15  2  0
 15 16  1  0
 16 17  2  0
 17 18  1  0
 18 19  2  0
 18 20  1  0
 20 21  2  0
 20 22  2  0
 20 23  1  0
 23 24  1  0
 24 25  1  0
 25 26  1  0
 26 27  1  0
 27 28  1  0
 26 29  1  0
 29 30  1  0
 15 31  1  0
 31 32  1  0
 32 33  1  0
  6 34  1  0
  8  4  1  0
 12  7  1  0
 19 14  1  0
 28 23  1  0
M  END
>  <CID>  (7) 
2

>  <Energy>  (7) 
-21.556911418999842

$$$$

     RDKit          3D

 34 37  0  0  0  0  0  0  0  0999 V2000
    5.0931   -3.8192   -0.1425 C   0  0  0  0  0  0  0  0  0  0  0  0
    4.1700   -4.4614    0.8849 C   0  0  0  0  0  0  0  0  0  0  0  0
    2.9991   -3.5576    1.2846 C   0  0  0  0  0  0  0  0  0  0  0  0
    3.4341   -2.3606    2.0651 C   0  0  0  0  0  0  0  0  0  0  0  0
    4.3174   -2.3431    3.0497 N   0  0  0  0  0  0  0  0  0  0  0  0
    4.3982   -1.0311    3.4586 C   0  0  0  0  0  0  0  0  0  0  0  0
    3.5368   -0.2558    2.7175 C   0  0  0  0  0  0  0  0  0  0  0  0
    2.9225   -1.1006    1.8414 N   0  0  0  0  0  0  0  0  0  0  0  0
    1.9771   -0.7403    0.9337 N   0  0  0  0  0  0  0  0  0  0  0  0
    1.6737    0.5249    0.9261 C   0  0  0  0  0  0  0  0  0  0  0  0
    2.2630    1.4385    1.7764 N   0  0  0  0  0  0  0  0  0  0  0  0
    3.2130    1.1244    2.7143 C   0  0  0  0  0  0  0  0  0  0  0  0
    3.6978    1.9778    3.4498 O   0  0  0  0  0  0  0  0  0  0  0  0
    0.6371    1.0415   -0.0371 C   0  0  0  0  0  0  0  0  0  0  0  0
    0.1441    2.3685   -0.0404 C   0  0  0  0  0  0  0  0  0  0  0  0
   -0.8455    2.7286   -0.9675 C   0  0  0  0  0  0  0  0  0  0  0  0
   -1.3378    1.8010   -1.8889 C   0  0  0  0  0  0  0  0  0  0  0  0
   -0.8509    0.4958   -1.8839 C   0  0  0  0  0  0  0  0  0  0  0  0
    0.1432    0.1195   -0.9802 C   0  0  0  0  0  0  0  0  0  0  0  0
   -1.4349   -0.6714   -3.0990 S   0  0  0  0  0  6  0  0  0  0  0  0
   -0.3407   -1.5729   -3.3871 O   0  0  0  0  0  0  0  0  0  0  0  0
   -2.0699    0.0985   -4.1484 O   0  0  0  0  0  0  0  0  0  0  0  0
   -2.6322   -1.5202   -2.2753 N   0  0  0  0  0  0  0  0  0  0  0  0
   -3.8877   -0.8133   -1.9338 C   0  0  0  0  0  0  0  0  0  0  0  0
   -4.9535   -1.7927   -1.3948 C   0  0  0  0  0  0  0  0  0  0  0  0
   -4.5108   -2.6877   -0.3053 N   0  0  0  0  0  0  0  0  0  0  0  0
   -3.0706   -2.5671   -0.0351 C   0  0  0  0  0  0  0  0  0  0  0  0
   -2.2326   -2.5909   -1.3279 C   0  0  0  0  0  0  0  0  0  0  0  0
   -5.3109   -2.5883    0.9164 C   0  0  0  0  0  0  0  0  0  0  0  0
   -6.7242   -3.1268    0.7143 C   0  0  0  0  0  0  0  0  0  0  0  0
    0.6542    3.2362    0.8908 O   0  0  0  0  0  0  0  0  0  0  0  0
    0.3950    4.6387    0.7793 C   0  0  0  0  0  0  0  0  0  0  0  0
   -0.8201    5.0204    1.6058 C   0  0  0  0  0  0  0  0  0  0  0  0
    5.3127   -0.6287    4.5504 C   0  0  0  0  0  0  0  0  0  0  0  0
  1  2  1  0
  2  3  1  0
  3  4  1  0
  4  5  2  0
  5  6  1  0
  6  7  2  0
  7  8  1  0
  8  9  1  0
  9 10  2  0
 10 11  1  0
 11 12  1  0
 12 13  2  0
 10 14  1  0
 14 15  2  0
 15 16  1  0
 16 17  2  0
 17 18  1  0
 18 19  2  0
 18 20  1  0
 20 21  2  0
 20 22  2  0
 20 23  1  0
 23 24  1  0
 24 25  1  0
 25 26  1  0
 26 27  1  0
 27 28  1  0
 26 29  1  0
 29 30  1  0
 15 31  1  0
 31 32  1  0
 32 33  1  0
  6 34  1  0
  8  4  1  0
 12  7  1  0
 19 14  1  0
 28 23  1  0
M  END
>  <CID>  (8) 
8

>  <Energy>  (8) 
-21.525622510369484

$$$$

     RDKit          3D

 34 37  0  0  0  0  0  0  0  0999 V2000
    4.9751   -0.4798    5.7605 C   0  0  0  0  0  0  0  0  0  0  0  0
    5.1895   -0.2546    4.2731 C   0  0  0  0  0  0  0  0  0  0  0  0
    4.9318   -1.5368    3.4845 C   0  0  0  0  0  0  0  0  0  0  0  0
    5.0217   -1.3106    2.0138 C   0  0  0  0  0  0  0  0  0  0  0  0
    6.1161   -1.3790    1.2750 N   0  0  0  0  0  0  0  0  0  0  0  0
    5.7072   -1.1378   -0.0203 C   0  0  0  0  0  0  0  0  0  0  0  0
    4.3482   -0.9177   -0.0520 C   0  0  0  0  0  0  0  0  0  0  0  0
    3.9210   -1.0079    1.2406 N   0  0  0  0  0  0  0  0  0  0  0  0
    2.6412   -0.8274    1.6596 N   0  0  0  0  0  0  0  0  0  0  0  0
    1.8041   -0.5525    0.7080 C   0  0  0  0  0  0  0  0  0  0  0  0
    2.1385   -0.4669   -0.6266 N   0  0  0  0  0  0  0  0  0  0  0  0
    3.4187   -0.6456   -1.0917 C   0  0  0  0  0  0  0  0  0  0  0  0
    3.6766   -0.5766   -2.2905 O   0  0  0  0  0  0  0  0  0  0  0  0
    0.3822   -0.3133    1.0086 C   0  0  0  0  0  0  0  0  0  0  0  0
   -0.0151    0.8567    1.6670 C   0  0  0  0  0  0  0  0  0  0  0  0
   -1.3679    1.0880    1.9255 C   0  0  0  0  0  0  0  0  0  0  0  0
   -2.3169    0.1290    1.5709 C   0  0  0  0  0  0  0  0  0  0  0  0
   -1.9075   -1.0466    0.9299 C   0  0  0  0  0  0  0  0  0  0  0  0
   -0.5605   -1.2776    0.6369 C   0  0  0  0  0  0  0  0  0  0  0  0
   -3.1355   -2.2603    0.5045 S   0  0  0  0  0  6  0  0  0  0  0  0
   -2.4987   -3.2746   -0.3081 O   0  0  0  0  0  0  0  0  0  0  0  0
   -3.8318   -2.5896    1.7280 O   0  0  0  0  0  0  0  0  0  0  0  0
   -4.1934   -1.3835   -0.5045 N   0  0  0  0  0  0  0  0  0  0  0  0
   -3.6412   -0.9881   -1.8394 C   0  0  0  0  0  0  0  0  0  0  0  0
   -4.1699   -1.8952   -2.9669 C   0  0  0  0  0  0  0  0  0  0  0  0
   -5.6416   -1.8912   -3.1176 N   0  0  0  0  0  0  0  0  0  0  0  0
   -6.3117   -1.5261   -1.8520 C   0  0  0  0  0  0  0  0  0  0  0  0
   -5.5520   -2.0175   -0.6050 C   0  0  0  0  0  0  0  0  0  0  0  0
   -6.0765   -1.0581   -4.2456 C   0  0  0  0  0  0  0  0  0  0  0  0
   -7.5708   -1.1739   -4.5349 C   0  0  0  0  0  0  0  0  0  0  0  0
    0.8998    1.8301    1.9670 O   0  0  0  0  0  0  0  0  0  0  0  0
    1.2141    1.8111    3.3663 C   0  0  0  0  0  0  0  0  0  0  0  0
    2.2685    2.8726    3.6273 C   0  0  0  0  0  0  0  0  0  0  0  0
    6.6769   -1.1435   -1.1380 C   0  0  0  0  0  0  0  0  0  0  0  0
  1  2  1  0
  2  3  1  0
  3  4  1  0
  4  5  2  0
  5  6  1  0
  6  7  2  0
  7  8  1  0
  8  9  1  0
  9 10  2  0
 10 11  1  0
 11 12  1  0
 12 13  2  0
 10 14  1  0
 14 15  2  0
 15 16  1  0
 16 17  2  0
 17 18  1  0
 18 19  2  0
 18 20  1  0
 20 21  2  0
 20 22  2  0
 20 23  1  0
 23 24  1  0
 24 25  1  0
 25 26  1  0
 26 27  1  0
 27 28  1  0
 26 29  1  0
 29 30  1  0
 15 31  1  0
 31 32  1  0
 32 33  1  0
  6 34  1  0
  8  4  1  0
 12  7  1  0
 19 14  1  0
 28 23  1  0
M  END
>  <CID>  (9) 
3

>  <Energy>  (9) 
-17.457684267472178

$$$$

     RDKit          3D

 34 37  0  0  0  0  0  0  0  0999 V2000
    2.4846   -2.2586   -1.6445 C   0  0  0  0  0  0  0  0  0  0  0  0
    3.7968   -1.5543   -1.9637 C   0  0  0  0  0  0  0  0  0  0  0  0
    4.0054   -0.2652   -1.1687 C   0  0  0  0  0  0  0  0  0  0  0  0
    4.2235   -0.5170    0.2850 C   0  0  0  0  0  0  0  0  0  0  0  0
    5.3500   -0.9182    0.8489 N   0  0  0  0  0  0  0  0  0  0  0  0
    5.0786   -1.0166    2.1970 C   0  0  0  0  0  0  0  0  0  0  0  0
    3.7697   -0.6659    2.4405 C   0  0  0  0  0  0  0  0  0  0  0  0
    3.2324   -0.3494    1.2269 N   0  0  0  0  0  0  0  0  0  0  0  0
    1.9509    0.0432    1.0158 N   0  0  0  0  0  0  0  0  0  0  0  0
    1.2332    0.1246    2.0935 C   0  0  0  0  0  0  0  0  0  0  0  0
    1.6873   -0.1785    3.3593 N   0  0  0  0  0  0  0  0  0  0  0  0
    2.9737   -0.5863    3.6138 C   0  0  0  0  0  0  0  0  0  0  0  0
    3.3495   -0.8410    4.7527 O   0  0  0  0  0  0  0  0  0  0  0  0
   -0.1741    0.5587    2.0169 C   0  0  0  0  0  0  0  0  0  0  0  0
   -0.4913    1.8504    1.5735 C   0  0  0  0  0  0  0  0  0  0  0  0
   -1.8309    2.2428    1.4957 C   0  0  0  0  0  0  0  0  0  0  0  0
   -2.8445    1.3362    1.8180 C   0  0  0  0  0  0  0  0  0  0  0  0
   -2.5149    0.0346    2.2134 C   0  0  0  0  0  0  0  0  0  0  0  0
   -1.1794   -0.3539    2.3472 C   0  0  0  0  0  0  0  0  0  0  0  0
   -3.8047   -1.1049    2.6685 S   0  0  0  0  0  6  0  0  0  0  0  0
   -3.2230   -2.0317    3.6175 O   0  0  0  0  0  0  0  0  0  0  0  0
   -4.9634   -0.3117    3.0202 O   0  0  0  0  0  0  0  0  0  0  0  0
   -4.1401   -1.9367    1.2474 N   0  0  0  0  0  0  0  0  0  0  0  0
   -3.2169   -2.9860    0.7598 C   0  0  0  0  0  0  0  0  0  0  0  0
   -2.3623   -2.5140   -0.4334 C   0  0  0  0  0  0  0  0  0  0  0  0
   -3.0648   -1.8024   -1.5065 N   0  0  0  0  0  0  0  0  0  0  0  0
   -4.0399   -0.8298   -0.9997 C   0  0  0  0  0  0  0  0  0  0  0  0
   -4.9242   -1.2861    0.1741 C   0  0  0  0  0  0  0  0  0  0  0  0
   -3.5173   -2.6287   -2.6239 C   0  0  0  0  0  0  0  0  0  0  0  0
   -4.5584   -3.7012   -2.3422 C   0  0  0  0  0  0  0  0  0  0  0  0
    0.5373    2.7202    1.3310 O   0  0  0  0  0  0  0  0  0  0  0  0
    0.4041    3.4549    0.1115 C   0  0  0  0  0  0  0  0  0  0  0  0
    1.7968    3.8429   -0.3505 C   0  0  0  0  0  0  0  0  0  0  0  0
    6.1229   -1.4523    3.1517 C   0  0  0  0  0  0  0  0  0  0  0  0
  1  2  1  0
  2  3  1  0
  3  4  1  0
  4  5  2  0
  5  6  1  0
  6  7  2  0
  7  8  1  0
  8  9  1  0
  9 10  2  0
 10 11  1  0
 11 12  1  0
 12 13  2  0
 10 14  1  0
 14 15  2  0
 15 16  1  0
 16 17  2  0
 17 18  1  0
 18 19  2  0
 18 20  1  0
 20 21  2  0
 20 22  2  0
 20 23  1  0
 23 24  1  0
 24 25  1  0
 25 26  1  0
 26 27  1  0
 27 28  1  0
 26 29  1  0
 29 30  1  0
 15 31  1  0
 31 32  1  0
 32 33  1  0
  6 34  1  0
  8  4  1  0
 12  7  1  0
 19 14  1  0
 28 23  1  0
M  END
>  <CID>  (10) 
6

>  <Energy>  (10) 
-16.453347927251176

$$$$

     RDKit          3D

 34 37  0  0  0  0  0  0  0  0999 V2000
    6.7490    1.0557    3.8539 C   0  0  0  0  0  0  0  0  0  0  0  0
    5.2447    0.8794    4.0110 C   0  0  0  0  0  0  0  0  0  0  0  0
    4.8073   -0.5870    3.9943 C   0  0  0  0  0  0  0  0  0  0  0  0
    4.8846   -1.1869    2.6303 C   0  0  0  0  0  0  0  0  0  0  0  0
    5.9566   -1.7271    2.0757 N   0  0  0  0  0  0  0  0  0  0  0  0
    5.5621   -2.1355    0.8202 C   0  0  0  0  0  0  0  0  0  0  0  0
    4.2303   -1.8428    0.6266 C   0  0  0  0  0  0  0  0  0  0  0  0
    3.8011   -1.2494    1.7777 N   0  0  0  0  0  0  0  0  0  0  0  0
    2.5330   -0.8205    2.0145 N   0  0  0  0  0  0  0  0  0  0  0  0
    1.7104   -1.0030    1.0281 C   0  0  0  0  0  0  0  0  0  0  0  0
    2.0641   -1.5832   -0.1766 N   0  0  0  0  0  0  0  0  0  0  0  0
    3.3291   -2.0392   -0.4519 C   0  0  0  0  0  0  0  0  0  0  0  0
    3.6004   -2.5527   -1.5318 O   0  0  0  0  0  0  0  0  0  0  0  0
    0.2818   -0.6167    1.1430 C   0  0  0  0  0  0  0  0  0  0  0  0
   -0.0970    0.6648    1.5809 C   0  0  0  0  0  0  0  0  0  0  0  0
   -1.4597    0.9681    1.7061 C   0  0  0  0  0  0  0  0  0  0  0  0
   -2.4312    0.0053    1.4159 C   0  0  0  0  0  0  0  0  0  0  0  0
   -2.0399   -1.2616    0.9803 C   0  0  0  0  0  0  0  0  0  0  0  0
   -0.6892   -1.5842    0.8444 C   0  0  0  0  0  0  0  0  0  0  0  0
   -3.2797   -2.4738    0.6002 S   0  0  0  0  0  6  0  0  0  0  0  0
   -4.0361   -2.6878    1.8129 O   0  0  0  0  0  0  0  0  0  0  0  0
   -2.6340   -3.5677   -0.0939 O   0  0  0  0  0  0  0  0  0  0  0  0
   -4.2736   -1.6764   -0.5308 N   0  0  0  0  0  0  0  0  0  0  0  0
   -3.5999   -1.2708   -1.8077 C   0  0  0  0  0  0  0  0  0  0  0  0
   -4.6400   -0.7366   -2.8106 C   0  0  0  0  0  0  0  0  0  0  0  0
   -5.6302   -1.7477   -3.2409 N   0  0  0  0  0  0  0  0  0  0  0  0
   -5.7716   -2.8161   -2.2306 C   0  0  0  0  0  0  0  0  0  0  0  0
   -5.5903   -2.3661   -0.7680 C   0  0  0  0  0  0  0  0  0  0  0  0
   -6.9263   -1.1367   -3.5728 C   0  0  0  0  0  0  0  0  0  0  0  0
   -6.8436   -0.1905   -4.7682 C   0  0  0  0  0  0  0  0  0  0  0  0
    0.8974    1.5817    1.7925 O   0  0  0  0  0  0  0  0  0  0  0  0
    0.6202    2.6165    2.7373 C   0  0  0  0  0  0  0  0  0  0  0  0
    1.9380    3.2567    3.1340 C   0  0  0  0  0  0  0  0  0  0  0  0
    6.5163   -2.7966   -0.0982 C   0  0  0  0  0  0  0  0  0  0  0  0
  1  2  1  0
  2  3  1  0
  3  4  1  0
  4  5  2  0
  5  6  1  0
  6  7  2  0
  7  8  1  0
  8  9  1  0
  9 10  2  0
 10 11  1  0
 11 12  1  0
 12 13  2  0
 10 14  1  0
 14 15  2  0
 15 16  1  0
 16 17  2  0
 17 18  1  0
 18 19  2  0
 18 20  1  0
 20 21  2  0
 20 22  2  0
 20 23  1  0
 23 24  1  0
 24 25  1  0
 25 26  1  0
 26 27  1  0
 27 28  1  0
 26 29  1  0
 29 30  1  0
 15 31  1  0
 31 32  1  0
 32 33  1  0
  6 34  1  0
  8  4  1  0
 12  7  1  0
 19 14  1  0
 28 23  1  0
M  END
>  <CID>  (11) 
5

>  <Energy>  (11) 
-16.19341071428533

$$$$
